
     RDKit          3D

 22 23  0  0  0  0  0  0  0  0999 V2000
   -0.0381   -1.2807    0.2561 B   0  0  0  0  0  0  0  0  0  0  0  0
   -1.4004   -0.5294    0.0210 C   0  0  0  0  0  0  0  0  0  0  0  0
   -2.5739   -1.1450   -0.0017 C   0  0  0  0  0  0  0  0  0  0  0  0
   -3.6170   -0.1658   -0.2393 C   0  0  0  0  0  0  0  0  0  0  0  0
   -3.0654    1.0294   -0.3577 C   0  0  0  0  0  0  0  0  0  0  0  0
   -1.5834    0.9390   -0.2054 C   0  0  0  0  0  0  0  0  0  0  0  0
    1.3675   -0.5745    0.2877 C   0  0  0  0  0  0  0  0  0  0  0  0
    2.5033   -1.2276    0.4876 C   0  0  0  0  0  0  0  0  0  0  0  0
    3.6037   -0.2833    0.4566 C   0  0  0  0  0  0  0  0  0  0  0  0
    3.1236    0.9286    0.2388 C   0  0  0  0  0  0  0  0  0  0  0  0
    1.6377    0.8865    0.1050 C   0  0  0  0  0  0  0  0  0  0  0  0
   -0.0729   -2.4516    0.4196 H   0  0  0  0  0  0  0  0  0  0  0  0
   -2.7307   -2.2077    0.1349 H   0  0  0  0  0  0  0  0  0  0  0  0
   -4.6768   -0.3714   -0.3097 H   0  0  0  0  0  0  0  0  0  0  0  0
   -3.6192    1.9409   -0.5396 H   0  0  0  0  0  0  0  0  0  0  0  0
   -1.0807    1.2677   -1.1388 H   0  0  0  0  0  0  0  0  0  0  0  0
   -1.2514    1.5262    0.6761 H   0  0  0  0  0  0  0  0  0  0  0  0
    2.5968   -2.2945    0.6483 H   0  0  0  0  0  0  0  0  0  0  0  0
    4.6502   -0.5232    0.5892 H   0  0  0  0  0  0  0  0  0  0  0  0
    3.7311    1.8212    0.1688 H   0  0  0  0  0  0  0  0  0  0  0  0
    1.1626    1.4869    0.9087 H   0  0  0  0  0  0  0  0  0  0  0  0
    1.3333    1.2284   -0.9062 H   0  0  0  0  0  0  0  0  0  0  0  0
  1  2  1  0
  2  3  2  0
  3  4  1  0
  4  5  2  0
  5  6  1  0
  1  7  1  0
  7  8  2  0
  8  9  1  0
  9 10  2  0
 10 11  1  0
  6  2  1  0
 11  7  1  0
  1 12  1  0
  3 13  1  0
  4 14  1  0
  5 15  1  0
  6 16  1  0
  6 17  1  0
  8 18  1  0
  9 19  1  0
 10 20  1  0
 11 21  1  0
 11 22  1  0
M  END
>  <energy_abs>  (1) 
42.962514047805634

>  <SMILES>  (1) 
B(C1=CC=CC1)C1=CC=CC1

>  <cluster_no>  (1) 
1

>  <Frag11_freqEFG_id>  (1) 
0

>  <initial_conformation_id>  (1) 
0

>  <minimize_method>  (1) 
UFF

$$$$
