
     RDKit          3D

 30 31  0  0  0  0  0  0  0  0999 V2000
   -0.3233    0.1439   -0.9578 B   0  0  0  0  0  0  0  0  0  0  0  0
   -1.3909   -0.6328   -0.0304 C   0  0  0  0  0  0  0  0  0  0  0  0
   -2.8209   -0.4205   -0.5196 C   0  0  0  0  0  0  0  0  0  0  0  0
   -3.3318    0.8237    0.1953 C   0  0  0  0  0  0  0  0  0  0  0  0
   -2.4673    0.9981    1.4421 C   0  0  0  0  0  0  0  0  0  0  0  0
   -1.3957   -0.0879    1.3974 C   0  0  0  0  0  0  0  0  0  0  0  0
    1.2573   -0.1553   -0.9355 C   0  0  0  0  0  0  0  0  0  0  0  0
    2.0679    1.0334   -0.4370 C   0  0  0  0  0  0  0  0  0  0  0  0
    3.3811    0.4487    0.0769 C   0  0  0  0  0  0  0  0  0  0  0  0
    3.1686   -1.0580    0.2291 C   0  0  0  0  0  0  0  0  0  0  0  0
    1.6961   -1.3177   -0.0539 C   0  0  0  0  0  0  0  0  0  0  0  0
   -0.7134    0.9637   -1.7154 H   0  0  0  0  0  0  0  0  0  0  0  0
   -1.1490   -1.7179   -0.0422 H   0  0  0  0  0  0  0  0  0  0  0  0
   -3.4401   -1.2927   -0.2122 H   0  0  0  0  0  0  0  0  0  0  0  0
   -2.8965   -0.3191   -1.6253 H   0  0  0  0  0  0  0  0  0  0  0  0
   -3.2184    1.7088   -0.4688 H   0  0  0  0  0  0  0  0  0  0  0  0
   -4.4049    0.7115    0.4637 H   0  0  0  0  0  0  0  0  0  0  0  0
   -1.9900    2.0028    1.4347 H   0  0  0  0  0  0  0  0  0  0  0  0
   -3.0806    0.9011    2.3646 H   0  0  0  0  0  0  0  0  0  0  0  0
   -0.4092    0.3111    1.7219 H   0  0  0  0  0  0  0  0  0  0  0  0
   -1.6793   -0.9079    2.0940 H   0  0  0  0  0  0  0  0  0  0  0  0
    1.5650   -0.3804   -1.9813 H   0  0  0  0  0  0  0  0  0  0  0  0
    1.5452    1.5441    0.4038 H   0  0  0  0  0  0  0  0  0  0  0  0
    2.2457    1.7682   -1.2525 H   0  0  0  0  0  0  0  0  0  0  0  0
    3.6535    0.9071    1.0528 H   0  0  0  0  0  0  0  0  0  0  0  0
    4.1990    0.6459   -0.6506 H   0  0  0  0  0  0  0  0  0  0  0  0
    3.4427   -1.4017    1.2504 H   0  0  0  0  0  0  0  0  0  0  0  0
    3.7931   -1.6027   -0.5132 H   0  0  0  0  0  0  0  0  0  0  0  0
    1.1483   -1.3238    0.9126 H   0  0  0  0  0  0  0  0  0  0  0  0
    1.5476   -2.2936   -0.5656 H   0  0  0  0  0  0  0  0  0  0  0  0
  1  2  1  0
  2  3  1  0
  3  4  1  0
  4  5  1  0
  5  6  1  0
  1  7  1  0
  7  8  1  0
  8  9  1  0
  9 10  1  0
 10 11  1  0
  6  2  1  0
 11  7  1  0
  1 12  1  0
  2 13  1  0
  3 14  1  0
  3 15  1  0
  4 16  1  0
  4 17  1  0
  5 18  1  0
  5 19  1  0
  6 20  1  0
  6 21  1  0
  7 22  1  0
  8 23  1  0
  8 24  1  0
  9 25  1  0
  9 26  1  0
 10 27  1  0
 10 28  1  0
 11 29  1  0
 11 30  1  0
M  END
>  <energy_abs>  (1) 
25.983848642199757

>  <SMILES>  (1) 
B(C1CCCC1)C1CCCC1

>  <cluster_no>  (1) 
1

>  <Frag11_freqEFG_id>  (1) 
1

>  <initial_conformation_id>  (1) 
0

>  <minimize_method>  (1) 
UFF

$$$$
