
     RDKit          3D

 18 19  0  0  0  0  0  0  0  0999 V2000
    0.0385   -0.8389   -0.9117 B   0  0  0  0  0  0  0  0  0  0  0  0
   -1.2862   -0.4495   -0.1620 C   0  0  0  0  0  0  0  0  0  0  0  0
   -2.5139   -1.0724   -0.3534 C   0  0  0  0  0  0  0  0  0  0  0  0
   -3.5491   -0.5162    0.4084 C   0  0  0  0  0  0  0  0  0  0  0  0
   -3.1480    0.5520    1.1982 C   0  0  0  0  0  0  0  0  0  0  0  0
   -1.5061    0.8000    0.9429 S   0  0  0  0  0  0  0  0  0  0  0  0
    1.4537   -0.2200   -0.6252 C   0  0  0  0  0  0  0  0  0  0  0  0
    1.8591    0.5486    0.4624 C   0  0  0  0  0  0  0  0  0  0  0  0
    3.2102    0.9143    0.4132 C   0  0  0  0  0  0  0  0  0  0  0  0
    3.8791    0.4340   -0.7035 C   0  0  0  0  0  0  0  0  0  0  0  0
    2.7859   -0.4480   -1.6244 S   0  0  0  0  0  0  0  0  0  0  0  0
   -0.0435   -1.6258   -1.7898 H   0  0  0  0  0  0  0  0  0  0  0  0
   -2.6630   -1.9068   -1.0269 H   0  0  0  0  0  0  0  0  0  0  0  0
   -4.5669   -0.8818    0.3806 H   0  0  0  0  0  0  0  0  0  0  0  0
   -3.7845    1.1261    1.8578 H   0  0  0  0  0  0  0  0  0  0  0  0
    1.2203    0.8248    1.2872 H   0  0  0  0  0  0  0  0  0  0  0  0
    3.6907    1.5075    1.1797 H   0  0  0  0  0  0  0  0  0  0  0  0
    4.9237    0.5938   -0.9336 H   0  0  0  0  0  0  0  0  0  0  0  0
  1  2  1  0
  2  3  2  0
  3  4  1  0
  4  5  2  0
  5  6  1  0
  1  7  1  0
  7  8  2  0
  8  9  1  0
  9 10  2  0
 10 11  1  0
  6  2  1  0
 11  7  1  0
  1 12  1  0
  3 13  1  0
  4 14  1  0
  5 15  1  0
  8 16  1  0
  9 17  1  0
 10 18  1  0
M  END
>  <energy_abs>  (1) 
68.7194623733619

>  <SMILES>  (1) 
B(c1cccs1)c1cccs1

>  <cluster_no>  (1) 
1

>  <Frag11_freqEFG_id>  (1) 
4

>  <initial_conformation_id>  (1) 
0

>  <minimize_method>  (1) 
UFF

$$$$
