
     RDKit          3D

 44 45  0  0  0  0  0  0  0  0999 V2000
    4.9858    2.4656    3.3151 C   0  0  0  0  0  0  0  0  0  0  0  0
    4.1467    1.3422    3.5520 O   0  0  0  0  0  0  0  0  0  0  0  0
    3.0420    1.2186    2.7558 C   0  0  0  0  0  0  0  0  0  0  0  0
    2.2371    0.1150    3.0403 C   0  0  0  0  0  0  0  0  0  0  0  0
    1.0759   -0.1324    2.3029 C   0  0  0  0  0  0  0  0  0  0  0  0
    0.6975    0.7207    1.2569 C   0  0  0  0  0  0  0  0  0  0  0  0
   -0.5589    0.4304    0.4596 C   0  0  0  0  0  0  0  0  0  0  0  0
   -1.0848    1.6280   -0.1230 O   0  0  0  0  0  0  0  0  0  0  0  0
   -1.8458    1.2944   -1.2000 C   0  0  0  0  0  0  0  0  0  0  0  0
   -2.5345    2.0925   -1.8148 O   0  0  0  0  0  0  0  0  0  0  0  0
   -1.7210   -0.1835   -1.4979 C   0  0  0  0  0  0  0  0  0  0  0  0
   -1.7273   -0.4095   -3.0050 C   0  0  0  0  0  0  0  0  0  0  0  0
   -0.4448   -0.5796   -0.7215 C   0  0  0  0  0  0  0  0  0  0  0  0
    0.8410   -0.3234   -1.5363 C   0  0  0  0  0  0  0  0  0  0  0  0
   -0.4837   -2.0298   -0.1517 C   0  0  0  0  0  0  0  0  0  0  0  0
   -0.8227   -3.2168   -1.0804 C   0  0  0  0  0  0  0  0  0  0  0  0
    0.2892   -3.5674   -2.0679 C   0  0  0  0  0  0  0  0  0  0  0  0
   -1.1140   -4.4550   -0.2175 C   0  0  0  0  0  0  0  0  0  0  0  0
    1.5101    1.8313    0.9825 C   0  0  0  0  0  0  0  0  0  0  0  0
    2.6726    2.0781    1.7234 C   0  0  0  0  0  0  0  0  0  0  0  0
    5.8106    2.4239    4.0330 H   0  0  0  0  0  0  0  0  0  0  0  0
    5.4177    2.4304    2.3095 H   0  0  0  0  0  0  0  0  0  0  0  0
    4.4464    3.4039    3.4820 H   0  0  0  0  0  0  0  0  0  0  0  0
    2.5158   -0.5578    3.8479 H   0  0  0  0  0  0  0  0  0  0  0  0
    0.4698   -0.9978    2.5611 H   0  0  0  0  0  0  0  0  0  0  0  0
   -1.3256    0.1053    1.1781 H   0  0  0  0  0  0  0  0  0  0  0  0
   -2.5982   -0.6693   -1.0511 H   0  0  0  0  0  0  0  0  0  0  0  0
   -2.7083   -0.1502   -3.4200 H   0  0  0  0  0  0  0  0  0  0  0  0
   -0.9957    0.2236   -3.5185 H   0  0  0  0  0  0  0  0  0  0  0  0
   -1.5297   -1.4502   -3.2673 H   0  0  0  0  0  0  0  0  0  0  0  0
    0.9493    0.7356   -1.7968 H   0  0  0  0  0  0  0  0  0  0  0  0
    1.7342   -0.6211   -0.9762 H   0  0  0  0  0  0  0  0  0  0  0  0
    0.8600   -0.8737   -2.4774 H   0  0  0  0  0  0  0  0  0  0  0  0
    0.4725   -2.2428    0.3447 H   0  0  0  0  0  0  0  0  0  0  0  0
   -1.2345   -2.0423    0.6513 H   0  0  0  0  0  0  0  0  0  0  0  0
   -1.7401   -2.9998   -1.6370 H   0  0  0  0  0  0  0  0  0  0  0  0
    0.3554   -2.8389   -2.8770 H   0  0  0  0  0  0  0  0  0  0  0  0
    0.0987   -4.5362   -2.5435 H   0  0  0  0  0  0  0  0  0  0  0  0
    1.2629   -3.6251   -1.5703 H   0  0  0  0  0  0  0  0  0  0  0  0
   -1.9436   -4.2650    0.4719 H   0  0  0  0  0  0  0  0  0  0  0  0
   -0.2379   -4.7415    0.3746 H   0  0  0  0  0  0  0  0  0  0  0  0
   -1.3961   -5.3092   -0.8425 H   0  0  0  0  0  0  0  0  0  0  0  0
    1.2448    2.5232    0.1846 H   0  0  0  0  0  0  0  0  0  0  0  0
    3.2621    2.9517    1.4664 H   0  0  0  0  0  0  0  0  0  0  0  0
  1  2  1  0
  2  3  1  0
  3  4  2  0
  4  5  1  0
  5  6  2  0
  6  7  1  0
  7  8  1  0
  8  9  1  0
  9 10  2  0
  9 11  1  0
 11 12  1  0
 11 13  1  0
 13 14  1  0
 13 15  1  0
 15 16  1  0
 16 17  1  0
 16 18  1  0
  6 19  1  0
 19 20  2  0
 20  3  1  0
 13  7  1  0
  1 21  1  0
  1 22  1  0
  1 23  1  0
  4 24  1  0
  5 25  1  0
  7 26  1  0
 11 27  1  0
 12 28  1  0
 12 29  1  0
 12 30  1  0
 14 31  1  0
 14 32  1  0
 14 33  1  0
 15 34  1  0
 15 35  1  0
 16 36  1  0
 17 37  1  0
 17 38  1  0
 17 39  1  0
 18 40  1  0
 18 41  1  0
 18 42  1  0
 19 43  1  0
 20 44  1  0
M  END
>  <energy_abs>  (1) 
44.5737028374007

>  <SMILES>  (1) 
COc1ccc(C2OC(=O)C(C)C2(C)CC(C)C)cc1

>  <cluster_no>  (1) 
1

>  <ccdc_id>  (1) 
33

>  <initial_conformation_id>  (1) 
283

>  <minimize_method>  (1) 
MMFF

$$$$
