#Put Keywords Here, check Charge and Multiplicity.

 

0  1
C           4.46340         2.13210         3.95980
O           3.15490         2.57820         3.62420
C           2.40700         1.75560         2.82900
C           1.10840         2.19930         2.58440
C           0.23510         1.45670         1.78280
C           0.64740         0.25450         1.19070
C          -0.27070        -0.58760         0.31590
O          -1.64460        -0.22600         0.53790
C          -2.12070         0.49640        -0.51090
O          -3.22390         1.01930        -0.52900
C          -1.10280         0.57020        -1.61740
C          -0.57670         1.99580        -1.74140
C          -0.09240        -0.54290        -1.22570
C           1.33040        -0.25540        -1.72210
C          -0.61930        -1.88230        -1.87580
C           0.32020        -3.10990        -1.96910
C          -0.37910        -4.21450        -2.77460
C           0.74780        -3.67880        -0.61970
C           1.95110        -0.19320         1.46550
C           2.82490         0.55180         2.26800
H           4.43160         1.17890         4.49790
H           4.90980         2.87570         4.62700
H           5.09440         2.06540         3.06740
H           0.76680         3.13250         3.02670
H          -0.77380         1.83890         1.63900
H          -0.19140        -1.61090         0.69010
H          -1.61580         0.31870        -2.55350
H          -0.04180         2.32750        -0.84860
H          -1.40430         2.69790        -1.89590
H           0.09580         2.09110        -2.60030
H           1.35900        -0.22960        -2.81700
H           1.71260         0.70730        -1.36740
H           2.04060        -1.01800        -1.39100
H          -1.55080        -2.18720        -1.37800
H          -0.90470        -1.65080        -2.91230
H           1.22100        -2.83430        -2.52890
H          -0.63880        -3.86100        -3.77820
H          -1.30020        -4.54300        -2.28090
H           0.27300        -5.08700        -2.88980
H           1.40040        -2.98600        -0.08500
H           1.31470        -4.60720        -0.75060
H          -0.11890        -3.90320         0.01080
H           2.30670        -1.13660         1.05700
H           3.82310         0.16070         2.43310

