#Put Keywords Here, check Charge and Multiplicity.

 

0  1
C           5.94270         1.98070         1.47050
O           4.68170         2.63150         1.55850
C           3.57140         1.85780         1.36470
C           3.55930         0.49560         1.07270
C           2.34350        -0.17750         0.89590
C           1.11770         0.49670         1.00310
C          -0.18550        -0.25280         0.79790
O          -1.25760         0.40610         1.49740
C          -2.43850         0.14020         0.87040
O          -3.52590         0.51600         1.27500
C          -2.18780        -0.70830        -0.35250
C          -3.18240        -0.42080        -1.46650
C          -0.70810        -0.40820        -0.65270
C          -0.56930         0.94020        -1.42240
C           0.03000        -1.47840        -1.51160
C          -0.13950        -3.00640        -1.32700
C          -1.40740        -3.56260        -1.98130
C           0.01340        -3.53260         0.09430
C           1.14430         1.86590         1.30520
C           2.35830         2.53620         1.48070
H           6.10680         1.57210         0.46790
H           6.04050         1.20340         2.23570
H           6.71900         2.72940         1.65570
H           4.47650        -0.07580         0.97730
H           2.36990        -1.24220         0.67660
H          -0.07920        -1.21870         1.29940
H          -2.31920        -1.73780        -0.00970
H          -2.89330        -0.91770        -2.39710
H          -4.17680        -0.78710        -1.18720
H          -3.28880         0.65190        -1.65920
H          -1.02630         0.88260        -2.41670
H           0.48300         1.20110        -1.58170
H          -1.04480         1.77230        -0.89200
H          -0.20550        -1.27850        -2.56720
H           1.10570        -1.27140        -1.43620
H           0.69000        -3.44900        -1.89870
H          -1.35260        -4.65560        -2.04120
H          -1.52110        -3.18600        -3.00310
H          -2.31360        -3.31960        -1.42370
H           0.94410        -3.17900         0.54640
H           0.05370        -4.62790         0.09090
H          -0.82450        -3.24700         0.73490
H           0.21900         2.42950         1.40920
H           2.35550         3.59840         1.71370

