
     RDKit          3D

 44 45  0  0  0  0  0  0  0  0999 V2000
    5.9427    1.9807    1.4705 C   0  0  0  0  0  0  0  0  0  0  0  0
    4.6817    2.6315    1.5585 O   0  0  0  0  0  0  0  0  0  0  0  0
    3.5714    1.8578    1.3647 C   0  0  0  0  0  0  0  0  0  0  0  0
    3.5593    0.4956    1.0727 C   0  0  0  0  0  0  0  0  0  0  0  0
    2.3435   -0.1775    0.8959 C   0  0  0  0  0  0  0  0  0  0  0  0
    1.1177    0.4967    1.0031 C   0  0  0  0  0  0  0  0  0  0  0  0
   -0.1855   -0.2528    0.7979 C   0  0  0  0  0  0  0  0  0  0  0  0
   -1.2576    0.4061    1.4974 O   0  0  0  0  0  0  0  0  0  0  0  0
   -2.4385    0.1402    0.8704 C   0  0  0  0  0  0  0  0  0  0  0  0
   -3.5259    0.5160    1.2750 O   0  0  0  0  0  0  0  0  0  0  0  0
   -2.1878   -0.7083   -0.3525 C   0  0  0  0  0  0  0  0  0  0  0  0
   -3.1824   -0.4208   -1.4665 C   0  0  0  0  0  0  0  0  0  0  0  0
   -0.7081   -0.4082   -0.6527 C   0  0  0  0  0  0  0  0  0  0  0  0
   -0.5693    0.9402   -1.4224 C   0  0  0  0  0  0  0  0  0  0  0  0
    0.0300   -1.4784   -1.5116 C   0  0  0  0  0  0  0  0  0  0  0  0
   -0.1395   -3.0064   -1.3270 C   0  0  0  0  0  0  0  0  0  0  0  0
   -1.4074   -3.5626   -1.9813 C   0  0  0  0  0  0  0  0  0  0  0  0
    0.0134   -3.5326    0.0943 C   0  0  0  0  0  0  0  0  0  0  0  0
    1.1443    1.8659    1.3052 C   0  0  0  0  0  0  0  0  0  0  0  0
    2.3583    2.5362    1.4807 C   0  0  0  0  0  0  0  0  0  0  0  0
    6.1068    1.5721    0.4679 H   0  0  0  0  0  0  0  0  0  0  0  0
    6.0405    1.2034    2.2357 H   0  0  0  0  0  0  0  0  0  0  0  0
    6.7190    2.7294    1.6557 H   0  0  0  0  0  0  0  0  0  0  0  0
    4.4765   -0.0758    0.9773 H   0  0  0  0  0  0  0  0  0  0  0  0
    2.3699   -1.2422    0.6766 H   0  0  0  0  0  0  0  0  0  0  0  0
   -0.0792   -1.2187    1.2994 H   0  0  0  0  0  0  0  0  0  0  0  0
   -2.3192   -1.7378   -0.0097 H   0  0  0  0  0  0  0  0  0  0  0  0
   -2.8933   -0.9177   -2.3971 H   0  0  0  0  0  0  0  0  0  0  0  0
   -4.1768   -0.7871   -1.1872 H   0  0  0  0  0  0  0  0  0  0  0  0
   -3.2888    0.6519   -1.6592 H   0  0  0  0  0  0  0  0  0  0  0  0
   -1.0263    0.8826   -2.4167 H   0  0  0  0  0  0  0  0  0  0  0  0
    0.4830    1.2011   -1.5817 H   0  0  0  0  0  0  0  0  0  0  0  0
   -1.0448    1.7723   -0.8920 H   0  0  0  0  0  0  0  0  0  0  0  0
   -0.2055   -1.2785   -2.5672 H   0  0  0  0  0  0  0  0  0  0  0  0
    1.1057   -1.2714   -1.4362 H   0  0  0  0  0  0  0  0  0  0  0  0
    0.6900   -3.4490   -1.8987 H   0  0  0  0  0  0  0  0  0  0  0  0
   -1.3526   -4.6556   -2.0412 H   0  0  0  0  0  0  0  0  0  0  0  0
   -1.5211   -3.1860   -3.0031 H   0  0  0  0  0  0  0  0  0  0  0  0
   -2.3136   -3.3196   -1.4237 H   0  0  0  0  0  0  0  0  0  0  0  0
    0.9441   -3.1790    0.5464 H   0  0  0  0  0  0  0  0  0  0  0  0
    0.0537   -4.6279    0.0909 H   0  0  0  0  0  0  0  0  0  0  0  0
   -0.8245   -3.2470    0.7349 H   0  0  0  0  0  0  0  0  0  0  0  0
    0.2190    2.4295    1.4092 H   0  0  0  0  0  0  0  0  0  0  0  0
    2.3555    3.5984    1.7137 H   0  0  0  0  0  0  0  0  0  0  0  0
  1  2  1  0
  2  3  1  0
  3  4  2  0
  4  5  1  0
  5  6  2  0
  6  7  1  0
  7  8  1  0
  8  9  1  0
  9 10  2  0
  9 11  1  0
 11 12  1  0
 11 13  1  0
 13 14  1  0
 13 15  1  0
 15 16  1  0
 16 17  1  0
 16 18  1  0
  6 19  1  0
 19 20  2  0
 20  3  1  0
 13  7  1  0
  1 21  1  0
  1 22  1  0
  1 23  1  0
  4 24  1  0
  5 25  1  0
  7 26  1  0
 11 27  1  0
 12 28  1  0
 12 29  1  0
 12 30  1  0
 14 31  1  0
 14 32  1  0
 14 33  1  0
 15 34  1  0
 15 35  1  0
 16 36  1  0
 17 37  1  0
 17 38  1  0
 17 39  1  0
 18 40  1  0
 18 41  1  0
 18 42  1  0
 19 43  1  0
 20 44  1  0
M  END
>  <energy_abs>  (100) 
48.23713865823836

>  <SMILES>  (100) 
COc1ccc(C2OC(=O)C(C)C2(C)CC(C)C)cc1

>  <cluster_no>  (100) 
100

>  <ccdc_id>  (100) 
33

>  <initial_conformation_id>  (100) 
206

>  <minimize_method>  (100) 
MMFF

$$$$
