
     RDKit          3D

 44 45  0  0  0  0  0  0  0  0999 V2000
    5.7927    1.8260    1.4234 C   0  0  0  0  0  0  0  0  0  0  0  0
    4.6450    2.3863    0.7987 O   0  0  0  0  0  0  0  0  0  0  0  0
    3.4543    1.7473    1.0055 C   0  0  0  0  0  0  0  0  0  0  0  0
    2.3529    2.3527    0.3996 C   0  0  0  0  0  0  0  0  0  0  0  0
    1.0724    1.8052    0.5261 C   0  0  0  0  0  0  0  0  0  0  0  0
    0.8678    0.6313    1.2636 C   0  0  0  0  0  0  0  0  0  0  0  0
   -0.4978   -0.0190    1.4131 C   0  0  0  0  0  0  0  0  0  0  0  0
   -1.5117    0.9939    1.4845 O   0  0  0  0  0  0  0  0  0  0  0  0
   -2.2154    1.0340    0.3208 C   0  0  0  0  0  0  0  0  0  0  0  0
   -3.0780    1.8643    0.0829 O   0  0  0  0  0  0  0  0  0  0  0  0
   -1.7558   -0.0545   -0.6205 C   0  0  0  0  0  0  0  0  0  0  0  0
   -2.9530   -0.6203   -1.3760 C   0  0  0  0  0  0  0  0  0  0  0  0
   -0.9903   -1.0127    0.3121 C   0  0  0  0  0  0  0  0  0  0  0  0
   -1.9285   -2.0174    1.0232 C   0  0  0  0  0  0  0  0  0  0  0  0
    0.1940   -1.7507   -0.3826 C   0  0  0  0  0  0  0  0  0  0  0  0
   -0.0444   -2.6041   -1.6499 C   0  0  0  0  0  0  0  0  0  0  0  0
   -0.8094   -3.9028   -1.4026 C   0  0  0  0  0  0  0  0  0  0  0  0
    1.3183   -2.9557   -2.2704 C   0  0  0  0  0  0  0  0  0  0  0  0
    1.9830    0.0325    1.8747 C   0  0  0  0  0  0  0  0  0  0  0  0
    3.2640    0.5833    1.7463 C   0  0  0  0  0  0  0  0  0  0  0  0
    6.6512    2.4565    1.1728 H   0  0  0  0  0  0  0  0  0  0  0  0
    5.9967    0.8195    1.0433 H   0  0  0  0  0  0  0  0  0  0  0  0
    5.6881    1.8239    2.5135 H   0  0  0  0  0  0  0  0  0  0  0  0
    2.4909    3.2663   -0.1744 H   0  0  0  0  0  0  0  0  0  0  0  0
    0.2451    2.3221    0.0463 H   0  0  0  0  0  0  0  0  0  0  0  0
   -0.5065   -0.5145    2.3932 H   0  0  0  0  0  0  0  0  0  0  0  0
   -1.0629    0.4107   -1.3328 H   0  0  0  0  0  0  0  0  0  0  0  0
   -3.7725   -0.8922   -0.7018 H   0  0  0  0  0  0  0  0  0  0  0  0
   -3.3537    0.1336   -2.0636 H   0  0  0  0  0  0  0  0  0  0  0  0
   -2.6912   -1.4965   -1.9715 H   0  0  0  0  0  0  0  0  0  0  0  0
   -2.6624   -1.5041    1.6561 H   0  0  0  0  0  0  0  0  0  0  0  0
   -2.5004   -2.6338    0.3307 H   0  0  0  0  0  0  0  0  0  0  0  0
   -1.3562   -2.6900    1.6725 H   0  0  0  0  0  0  0  0  0  0  0  0
    0.7081   -2.3701    0.3655 H   0  0  0  0  0  0  0  0  0  0  0  0
    0.9219   -0.9892   -0.6886 H   0  0  0  0  0  0  0  0  0  0  0  0
   -0.5817   -2.0094   -2.3955 H   0  0  0  0  0  0  0  0  0  0  0  0
   -0.7109   -4.5856   -2.2542 H   0  0  0  0  0  0  0  0  0  0  0  0
   -1.8789   -3.7221   -1.2851 H   0  0  0  0  0  0  0  0  0  0  0  0
   -0.4399   -4.4230   -0.5130 H   0  0  0  0  0  0  0  0  0  0  0  0
    1.9229   -3.5588   -1.5843 H   0  0  0  0  0  0  0  0  0  0  0  0
    1.1905   -3.5222   -3.1992 H   0  0  0  0  0  0  0  0  0  0  0  0
    1.8830   -2.0496   -2.5152 H   0  0  0  0  0  0  0  0  0  0  0  0
    1.8648   -0.8784    2.4592 H   0  0  0  0  0  0  0  0  0  0  0  0
    4.0882    0.0775    2.2377 H   0  0  0  0  0  0  0  0  0  0  0  0
  1  2  1  0
  2  3  1  0
  3  4  2  0
  4  5  1  0
  5  6  2  0
  6  7  1  0
  7  8  1  0
  8  9  1  0
  9 10  2  0
  9 11  1  0
 11 12  1  0
 11 13  1  0
 13 14  1  0
 13 15  1  0
 15 16  1  0
 16 17  1  0
 16 18  1  0
  6 19  1  0
 19 20  2  0
 20  3  1  0
 13  7  1  0
  1 21  1  0
  1 22  1  0
  1 23  1  0
  4 24  1  0
  5 25  1  0
  7 26  1  0
 11 27  1  0
 12 28  1  0
 12 29  1  0
 12 30  1  0
 14 31  1  0
 14 32  1  0
 14 33  1  0
 15 34  1  0
 15 35  1  0
 16 36  1  0
 17 37  1  0
 17 38  1  0
 17 39  1  0
 18 40  1  0
 18 41  1  0
 18 42  1  0
 19 43  1  0
 20 44  1  0
M  END
>  <energy_abs>  (102) 
47.39953097505186

>  <SMILES>  (102) 
COc1ccc(C2OC(=O)C(C)C2(C)CC(C)C)cc1

>  <cluster_no>  (102) 
102

>  <ccdc_id>  (102) 
33

>  <initial_conformation_id>  (102) 
204

>  <minimize_method>  (102) 
MMFF

$$$$
