
     RDKit          3D

 44 45  0  0  0  0  0  0  0  0999 V2000
    5.8572    1.5807    1.8866 C   0  0  0  0  0  0  0  0  0  0  0  0
    4.6193    2.2611    2.0476 O   0  0  0  0  0  0  0  0  0  0  0  0
    3.5283    1.7147    1.4312 C   0  0  0  0  0  0  0  0  0  0  0  0
    2.3419    2.4269    1.6015 C   0  0  0  0  0  0  0  0  0  0  0  0
    1.1497    1.9787    1.0254 C   0  0  0  0  0  0  0  0  0  0  0  0
    1.1159    0.8003    0.2643 C   0  0  0  0  0  0  0  0  0  0  0  0
   -0.1723    0.2888   -0.3562 C   0  0  0  0  0  0  0  0  0  0  0  0
   -1.1265    1.3608   -0.4760 O   0  0  0  0  0  0  0  0  0  0  0  0
   -2.3927    0.8666   -0.3877 C   0  0  0  0  0  0  0  0  0  0  0  0
   -3.3989    1.5459   -0.5059 O   0  0  0  0  0  0  0  0  0  0  0  0
   -2.3482   -0.6240   -0.1672 C   0  0  0  0  0  0  0  0  0  0  0  0
   -3.5130   -1.1165    0.6801 C   0  0  0  0  0  0  0  0  0  0  0  0
   -0.9288   -0.8225    0.4071 C   0  0  0  0  0  0  0  0  0  0  0  0
   -0.9364   -0.5499    1.9401 C   0  0  0  0  0  0  0  0  0  0  0  0
   -0.3633   -2.2602    0.2126 C   0  0  0  0  0  0  0  0  0  0  0  0
    0.1077   -2.7582   -1.1761 C   0  0  0  0  0  0  0  0  0  0  0  0
   -0.9955   -2.8887   -2.2225 C   0  0  0  0  0  0  0  0  0  0  0  0
    0.7881   -4.1253   -1.0036 C   0  0  0  0  0  0  0  0  0  0  0  0
    2.3166    0.0946    0.0966 C   0  0  0  0  0  0  0  0  0  0  0  0
    3.5111    0.5455    0.6744 C   0  0  0  0  0  0  0  0  0  0  0  0
    6.6219    2.1451    2.4290 H   0  0  0  0  0  0  0  0  0  0  0  0
    6.1544    1.5449    0.8333 H   0  0  0  0  0  0  0  0  0  0  0  0
    5.8147    0.5762    2.3204 H   0  0  0  0  0  0  0  0  0  0  0  0
    2.3430    3.3431    2.1874 H   0  0  0  0  0  0  0  0  0  0  0  0
    0.2464    2.5657    1.1819 H   0  0  0  0  0  0  0  0  0  0  0  0
    0.0496   -0.0071   -1.3886 H   0  0  0  0  0  0  0  0  0  0  0  0
   -2.4455   -1.0650   -1.1589 H   0  0  0  0  0  0  0  0  0  0  0  0
   -3.6293   -0.5386    1.6028 H   0  0  0  0  0  0  0  0  0  0  0  0
   -4.4530   -1.0092    0.1267 H   0  0  0  0  0  0  0  0  0  0  0  0
   -3.3982   -2.1739    0.9360 H   0  0  0  0  0  0  0  0  0  0  0  0
    0.0738   -0.5924    2.3622 H   0  0  0  0  0  0  0  0  0  0  0  0
   -1.3552    0.4330    2.1822 H   0  0  0  0  0  0  0  0  0  0  0  0
   -1.5238   -1.3047    2.4751 H   0  0  0  0  0  0  0  0  0  0  0  0
    0.5053   -2.3553    0.8804 H   0  0  0  0  0  0  0  0  0  0  0  0
   -1.1013   -2.9756    0.6014 H   0  0  0  0  0  0  0  0  0  0  0  0
    0.8675   -2.0797   -1.5746 H   0  0  0  0  0  0  0  0  0  0  0  0
   -1.2742   -1.9103   -2.6223 H   0  0  0  0  0  0  0  0  0  0  0  0
   -1.8852   -3.3754   -1.8104 H   0  0  0  0  0  0  0  0  0  0  0  0
   -0.6572   -3.4813   -3.0800 H   0  0  0  0  0  0  0  0  0  0  0  0
    1.6259   -4.0594   -0.3012 H   0  0  0  0  0  0  0  0  0  0  0  0
    0.0837   -4.8741   -0.6252 H   0  0  0  0  0  0  0  0  0  0  0  0
    1.1877   -4.4864   -1.9574 H   0  0  0  0  0  0  0  0  0  0  0  0
    2.3465   -0.8183   -0.4909 H   0  0  0  0  0  0  0  0  0  0  0  0
    4.4088   -0.0414    0.5110 H   0  0  0  0  0  0  0  0  0  0  0  0
  1  2  1  0
  2  3  1  0
  3  4  2  0
  4  5  1  0
  5  6  2  0
  6  7  1  0
  7  8  1  0
  8  9  1  0
  9 10  2  0
  9 11  1  0
 11 12  1  0
 11 13  1  0
 13 14  1  0
 13 15  1  0
 15 16  1  0
 16 17  1  0
 16 18  1  0
  6 19  1  0
 19 20  2  0
 20  3  1  0
 13  7  1  0
  1 21  1  0
  1 22  1  0
  1 23  1  0
  4 24  1  0
  5 25  1  0
  7 26  1  0
 11 27  1  0
 12 28  1  0
 12 29  1  0
 12 30  1  0
 14 31  1  0
 14 32  1  0
 14 33  1  0
 15 34  1  0
 15 35  1  0
 16 36  1  0
 17 37  1  0
 17 38  1  0
 17 39  1  0
 18 40  1  0
 18 41  1  0
 18 42  1  0
 19 43  1  0
 20 44  1  0
M  END
>  <energy_abs>  (104) 
45.455111307541706

>  <SMILES>  (104) 
COc1ccc(C2OC(=O)C(C)C2(C)CC(C)C)cc1

>  <cluster_no>  (104) 
104

>  <ccdc_id>  (104) 
33

>  <initial_conformation_id>  (104) 
202

>  <minimize_method>  (104) 
MMFF

$$$$
