#Put Keywords Here, check Charge and Multiplicity.

 

0  1
C           5.25380         1.97860         2.56500
O           4.92330         1.53760         1.25410
C           3.59980         1.31520         0.99360
C           2.54760         1.46850         1.89290
C           1.23250         1.20220         1.49100
C           0.94180         0.76330         0.18960
C          -0.47570         0.47890        -0.26210
O          -1.31460         1.54710         0.21140
C          -2.58850         1.09950         0.36560
O          -3.52850         1.80780         0.68790
C          -2.67050        -0.37300         0.05470
C          -3.34210        -0.52830        -1.30710
C          -1.18060        -0.82150         0.19200
C          -0.98100        -1.14980         1.69190
C          -0.88100        -2.06500        -0.69580
C           0.55270        -2.61470        -0.86960
C           0.51300        -3.78160        -1.87070
C           1.22930        -3.09420         0.41030
C           2.00810         0.64260        -0.71210
C           3.32100         0.90610        -0.31020
H           4.78990         2.94580         2.78510
H           6.33900         2.11260         2.60880
H           4.98050         1.22850         3.31450
H           2.70940         1.80120         2.91260
H           0.42990         1.35600         2.21010
H          -0.50040         0.55060        -1.35840
H          -3.29230        -0.85890         0.81620
H          -2.76190        -0.05700        -2.10760
H          -4.32940        -0.05220        -1.30560
H          -3.49220        -1.58330        -1.55610
H           0.06330        -1.28560         1.96780
H          -1.51300        -2.07030         1.95980
H          -1.37210        -0.35690         2.34020
H          -1.52490        -2.88710        -0.35200
H          -1.21900        -1.83550        -1.71430
H           1.17850        -1.84420        -1.32450
H           1.52240        -4.15330        -2.07760
H          -0.08350        -4.61530        -1.48460
H           0.07830        -3.46470        -2.82490
H           1.59740        -2.25320         1.00150
H           0.55000        -3.69430         1.02380
H           2.10740        -3.71020         0.18490
H           1.83220         0.34720        -1.74410
H           4.13410         0.79850        -1.02420

