
     RDKit          3D

 44 45  0  0  0  0  0  0  0  0999 V2000
    5.2538    1.9786    2.5650 C   0  0  0  0  0  0  0  0  0  0  0  0
    4.9233    1.5376    1.2541 O   0  0  0  0  0  0  0  0  0  0  0  0
    3.5998    1.3152    0.9936 C   0  0  0  0  0  0  0  0  0  0  0  0
    2.5476    1.4685    1.8929 C   0  0  0  0  0  0  0  0  0  0  0  0
    1.2325    1.2022    1.4910 C   0  0  0  0  0  0  0  0  0  0  0  0
    0.9418    0.7633    0.1896 C   0  0  0  0  0  0  0  0  0  0  0  0
   -0.4757    0.4789   -0.2621 C   0  0  0  0  0  0  0  0  0  0  0  0
   -1.3146    1.5471    0.2114 O   0  0  0  0  0  0  0  0  0  0  0  0
   -2.5885    1.0995    0.3656 C   0  0  0  0  0  0  0  0  0  0  0  0
   -3.5285    1.8078    0.6879 O   0  0  0  0  0  0  0  0  0  0  0  0
   -2.6705   -0.3730    0.0547 C   0  0  0  0  0  0  0  0  0  0  0  0
   -3.3421   -0.5283   -1.3071 C   0  0  0  0  0  0  0  0  0  0  0  0
   -1.1806   -0.8215    0.1920 C   0  0  0  0  0  0  0  0  0  0  0  0
   -0.9810   -1.1498    1.6919 C   0  0  0  0  0  0  0  0  0  0  0  0
   -0.8810   -2.0650   -0.6958 C   0  0  0  0  0  0  0  0  0  0  0  0
    0.5527   -2.6147   -0.8696 C   0  0  0  0  0  0  0  0  0  0  0  0
    0.5130   -3.7816   -1.8707 C   0  0  0  0  0  0  0  0  0  0  0  0
    1.2293   -3.0942    0.4103 C   0  0  0  0  0  0  0  0  0  0  0  0
    2.0081    0.6426   -0.7121 C   0  0  0  0  0  0  0  0  0  0  0  0
    3.3210    0.9061   -0.3102 C   0  0  0  0  0  0  0  0  0  0  0  0
    4.7899    2.9458    2.7851 H   0  0  0  0  0  0  0  0  0  0  0  0
    6.3390    2.1126    2.6088 H   0  0  0  0  0  0  0  0  0  0  0  0
    4.9805    1.2285    3.3145 H   0  0  0  0  0  0  0  0  0  0  0  0
    2.7094    1.8012    2.9126 H   0  0  0  0  0  0  0  0  0  0  0  0
    0.4299    1.3560    2.2101 H   0  0  0  0  0  0  0  0  0  0  0  0
   -0.5004    0.5506   -1.3584 H   0  0  0  0  0  0  0  0  0  0  0  0
   -3.2923   -0.8589    0.8162 H   0  0  0  0  0  0  0  0  0  0  0  0
   -2.7619   -0.0570   -2.1076 H   0  0  0  0  0  0  0  0  0  0  0  0
   -4.3294   -0.0522   -1.3056 H   0  0  0  0  0  0  0  0  0  0  0  0
   -3.4922   -1.5833   -1.5561 H   0  0  0  0  0  0  0  0  0  0  0  0
    0.0633   -1.2856    1.9678 H   0  0  0  0  0  0  0  0  0  0  0  0
   -1.5130   -2.0703    1.9598 H   0  0  0  0  0  0  0  0  0  0  0  0
   -1.3721   -0.3569    2.3402 H   0  0  0  0  0  0  0  0  0  0  0  0
   -1.5249   -2.8871   -0.3520 H   0  0  0  0  0  0  0  0  0  0  0  0
   -1.2190   -1.8355   -1.7143 H   0  0  0  0  0  0  0  0  0  0  0  0
    1.1785   -1.8442   -1.3245 H   0  0  0  0  0  0  0  0  0  0  0  0
    1.5224   -4.1533   -2.0776 H   0  0  0  0  0  0  0  0  0  0  0  0
   -0.0835   -4.6153   -1.4846 H   0  0  0  0  0  0  0  0  0  0  0  0
    0.0783   -3.4647   -2.8249 H   0  0  0  0  0  0  0  0  0  0  0  0
    1.5974   -2.2532    1.0015 H   0  0  0  0  0  0  0  0  0  0  0  0
    0.5500   -3.6943    1.0238 H   0  0  0  0  0  0  0  0  0  0  0  0
    2.1074   -3.7102    0.1849 H   0  0  0  0  0  0  0  0  0  0  0  0
    1.8322    0.3472   -1.7441 H   0  0  0  0  0  0  0  0  0  0  0  0
    4.1341    0.7985   -1.0242 H   0  0  0  0  0  0  0  0  0  0  0  0
  1  2  1  0
  2  3  1  0
  3  4  2  0
  4  5  1  0
  5  6  2  0
  6  7  1  0
  7  8  1  0
  8  9  1  0
  9 10  2  0
  9 11  1  0
 11 12  1  0
 11 13  1  0
 13 14  1  0
 13 15  1  0
 15 16  1  0
 16 17  1  0
 16 18  1  0
  6 19  1  0
 19 20  2  0
 20  3  1  0
 13  7  1  0
  1 21  1  0
  1 22  1  0
  1 23  1  0
  4 24  1  0
  5 25  1  0
  7 26  1  0
 11 27  1  0
 12 28  1  0
 12 29  1  0
 12 30  1  0
 14 31  1  0
 14 32  1  0
 14 33  1  0
 15 34  1  0
 15 35  1  0
 16 36  1  0
 17 37  1  0
 17 38  1  0
 17 39  1  0
 18 40  1  0
 18 41  1  0
 18 42  1  0
 19 43  1  0
 20 44  1  0
M  END
>  <energy_abs>  (108) 
48.24886672540417

>  <SMILES>  (108) 
COc1ccc(C2OC(=O)C(C)C2(C)CC(C)C)cc1

>  <cluster_no>  (108) 
108

>  <ccdc_id>  (108) 
33

>  <initial_conformation_id>  (108) 
198

>  <minimize_method>  (108) 
MMFF

$$$$
