%NProcShared=1
%Mem=10GB

#p B3LYP/6-31G* opt freq

test

0  1
C           4.92770         3.75850         1.34020
O           4.85120         2.33980         1.28050
C           3.60280         1.79300         1.17520
C           3.57500         0.39930         1.14820
C           2.36330        -0.28950         1.04290
C           1.14560         0.40260         0.95270
C          -0.15300        -0.38260         0.82680
O          -1.25700         0.38500         1.34400
C          -1.99210         0.89290         0.31400
O          -2.95970         1.62050         0.46180
C          -1.39200         0.46370        -0.99910
C          -2.43890         0.33530        -2.09520
C          -0.60730        -0.81110        -0.59560
C           0.52700        -1.06620        -1.59880
C          -1.55400        -2.06410        -0.52180
C          -0.92770        -3.48060        -0.45350
C          -0.09040        -3.74730         0.79300
C          -2.04770        -4.52830        -0.53250
C           1.18590         1.80490         0.99110
C           2.40170         2.49370         1.09880
H           4.54420         4.21330         0.42080
H           5.98310         4.03280         1.43170
H           4.40550         4.14570         2.22140
H           4.50690        -0.15750         1.21390
H           2.38590        -1.37650         1.03290
H          -0.07150        -1.24090         1.49700
H          -0.69150         1.25630        -1.29430
H          -2.02420        -0.14040        -2.98890
H          -3.31890        -0.22680        -1.76580
H          -2.80020         1.32860        -2.38590
H           0.12620        -1.39580        -2.56400
H           1.21920        -1.83600        -1.24550
H           1.11390        -0.16170        -1.79270
H          -2.17230        -2.07500        -1.42700
H          -2.25540        -1.94520         0.31500
H          -0.29100        -3.63260        -1.33310
H           0.22300        -4.79650         0.83400
H           0.82280        -3.14880         0.79290
H          -0.65440        -3.53280         1.70650
H          -1.63370        -5.54240        -0.54190
H          -2.63570        -4.40400        -1.44820
H          -2.72800        -4.44730         0.32220
H           0.27130         2.39290         0.95140
H           2.36950         3.57800         1.12550

