
     RDKit          3D

 44 45  0  0  0  0  0  0  0  0999 V2000
    4.9277    3.7585    1.3402 C   0  0  0  0  0  0  0  0  0  0  0  0
    4.8512    2.3398    1.2805 O   0  0  0  0  0  0  0  0  0  0  0  0
    3.6028    1.7930    1.1752 C   0  0  0  0  0  0  0  0  0  0  0  0
    3.5750    0.3993    1.1482 C   0  0  0  0  0  0  0  0  0  0  0  0
    2.3633   -0.2895    1.0429 C   0  0  0  0  0  0  0  0  0  0  0  0
    1.1456    0.4026    0.9527 C   0  0  0  0  0  0  0  0  0  0  0  0
   -0.1530   -0.3826    0.8268 C   0  0  0  0  0  0  0  0  0  0  0  0
   -1.2570    0.3850    1.3440 O   0  0  0  0  0  0  0  0  0  0  0  0
   -1.9921    0.8929    0.3140 C   0  0  0  0  0  0  0  0  0  0  0  0
   -2.9597    1.6205    0.4618 O   0  0  0  0  0  0  0  0  0  0  0  0
   -1.3920    0.4637   -0.9991 C   0  0  0  0  0  0  0  0  0  0  0  0
   -2.4389    0.3353   -2.0952 C   0  0  0  0  0  0  0  0  0  0  0  0
   -0.6073   -0.8111   -0.5956 C   0  0  0  0  0  0  0  0  0  0  0  0
    0.5270   -1.0662   -1.5988 C   0  0  0  0  0  0  0  0  0  0  0  0
   -1.5540   -2.0641   -0.5218 C   0  0  0  0  0  0  0  0  0  0  0  0
   -0.9277   -3.4806   -0.4535 C   0  0  0  0  0  0  0  0  0  0  0  0
   -0.0904   -3.7473    0.7930 C   0  0  0  0  0  0  0  0  0  0  0  0
   -2.0477   -4.5283   -0.5325 C   0  0  0  0  0  0  0  0  0  0  0  0
    1.1859    1.8049    0.9911 C   0  0  0  0  0  0  0  0  0  0  0  0
    2.4017    2.4937    1.0988 C   0  0  0  0  0  0  0  0  0  0  0  0
    4.5442    4.2133    0.4208 H   0  0  0  0  0  0  0  0  0  0  0  0
    5.9831    4.0328    1.4317 H   0  0  0  0  0  0  0  0  0  0  0  0
    4.4055    4.1457    2.2214 H   0  0  0  0  0  0  0  0  0  0  0  0
    4.5069   -0.1575    1.2139 H   0  0  0  0  0  0  0  0  0  0  0  0
    2.3859   -1.3765    1.0329 H   0  0  0  0  0  0  0  0  0  0  0  0
   -0.0715   -1.2409    1.4970 H   0  0  0  0  0  0  0  0  0  0  0  0
   -0.6915    1.2563   -1.2943 H   0  0  0  0  0  0  0  0  0  0  0  0
   -2.0242   -0.1404   -2.9889 H   0  0  0  0  0  0  0  0  0  0  0  0
   -3.3189   -0.2268   -1.7658 H   0  0  0  0  0  0  0  0  0  0  0  0
   -2.8002    1.3286   -2.3859 H   0  0  0  0  0  0  0  0  0  0  0  0
    0.1262   -1.3958   -2.5640 H   0  0  0  0  0  0  0  0  0  0  0  0
    1.2192   -1.8360   -1.2455 H   0  0  0  0  0  0  0  0  0  0  0  0
    1.1139   -0.1617   -1.7927 H   0  0  0  0  0  0  0  0  0  0  0  0
   -2.1723   -2.0750   -1.4270 H   0  0  0  0  0  0  0  0  0  0  0  0
   -2.2554   -1.9452    0.3150 H   0  0  0  0  0  0  0  0  0  0  0  0
   -0.2910   -3.6326   -1.3331 H   0  0  0  0  0  0  0  0  0  0  0  0
    0.2230   -4.7965    0.8340 H   0  0  0  0  0  0  0  0  0  0  0  0
    0.8228   -3.1488    0.7929 H   0  0  0  0  0  0  0  0  0  0  0  0
   -0.6544   -3.5328    1.7065 H   0  0  0  0  0  0  0  0  0  0  0  0
   -1.6337   -5.5424   -0.5419 H   0  0  0  0  0  0  0  0  0  0  0  0
   -2.6357   -4.4040   -1.4482 H   0  0  0  0  0  0  0  0  0  0  0  0
   -2.7280   -4.4473    0.3222 H   0  0  0  0  0  0  0  0  0  0  0  0
    0.2713    2.3929    0.9514 H   0  0  0  0  0  0  0  0  0  0  0  0
    2.3695    3.5780    1.1255 H   0  0  0  0  0  0  0  0  0  0  0  0
  1  2  1  0
  2  3  1  0
  3  4  2  0
  4  5  1  0
  5  6  2  0
  6  7  1  0
  7  8  1  0
  8  9  1  0
  9 10  2  0
  9 11  1  0
 11 12  1  0
 11 13  1  0
 13 14  1  0
 13 15  1  0
 15 16  1  0
 16 17  1  0
 16 18  1  0
  6 19  1  0
 19 20  2  0
 20  3  1  0
 13  7  1  0
  1 21  1  0
  1 22  1  0
  1 23  1  0
  4 24  1  0
  5 25  1  0
  7 26  1  0
 11 27  1  0
 12 28  1  0
 12 29  1  0
 12 30  1  0
 14 31  1  0
 14 32  1  0
 14 33  1  0
 15 34  1  0
 15 35  1  0
 16 36  1  0
 17 37  1  0
 17 38  1  0
 17 39  1  0
 18 40  1  0
 18 41  1  0
 18 42  1  0
 19 43  1  0
 20 44  1  0
M  END
>  <energy_abs>  (109) 
45.413783241431226

>  <SMILES>  (109) 
COc1ccc(C2OC(=O)C(C)C2(C)CC(C)C)cc1

>  <cluster_no>  (109) 
109

>  <ccdc_id>  (109) 
33

>  <initial_conformation_id>  (109) 
196

>  <minimize_method>  (109) 
MMFF

$$$$
