
     RDKit          3D

 44 45  0  0  0  0  0  0  0  0999 V2000
    3.2309    3.3603    4.4711 C   0  0  0  0  0  0  0  0  0  0  0  0
    3.3358    1.9683    4.1995 O   0  0  0  0  0  0  0  0  0  0  0  0
    2.6701    1.5021    3.1002 C   0  0  0  0  0  0  0  0  0  0  0  0
    1.8780    2.2563    2.2373 C   0  0  0  0  0  0  0  0  0  0  0  0
    1.2471    1.6497    1.1430 C   0  0  0  0  0  0  0  0  0  0  0  0
    1.3937    0.2772    0.8918 C   0  0  0  0  0  0  0  0  0  0  0  0
    0.7173   -0.4261   -0.2760 C   0  0  0  0  0  0  0  0  0  0  0  0
    0.5365    0.4928   -1.3677 O   0  0  0  0  0  0  0  0  0  0  0  0
   -0.7762    0.8545   -1.4661 C   0  0  0  0  0  0  0  0  0  0  0  0
   -1.2016    1.6598   -2.2776 O   0  0  0  0  0  0  0  0  0  0  0  0
   -1.5833    0.1536   -0.4061 C   0  0  0  0  0  0  0  0  0  0  0  0
   -3.0078   -0.1574   -0.8356 C   0  0  0  0  0  0  0  0  0  0  0  0
   -0.6817   -1.0395   -0.0457 C   0  0  0  0  0  0  0  0  0  0  0  0
   -0.9397   -1.4696    1.4152 C   0  0  0  0  0  0  0  0  0  0  0  0
   -0.9118   -2.3239   -0.9213 C   0  0  0  0  0  0  0  0  0  0  0  0
   -0.7823   -2.2703   -2.4654 C   0  0  0  0  0  0  0  0  0  0  0  0
   -1.6479   -3.3821   -3.0795 C   0  0  0  0  0  0  0  0  0  0  0  0
    0.6532   -2.4554   -2.9650 C   0  0  0  0  0  0  0  0  0  0  0  0
    2.2019   -0.4690    1.7644 C   0  0  0  0  0  0  0  0  0  0  0  0
    2.8282    0.1381    2.8561 C   0  0  0  0  0  0  0  0  0  0  0  0
    3.8236    3.5717    5.3663 H   0  0  0  0  0  0  0  0  0  0  0  0
    2.1947    3.6437    4.6834 H   0  0  0  0  0  0  0  0  0  0  0  0
    3.6441    3.9555    3.6500 H   0  0  0  0  0  0  0  0  0  0  0  0
    1.7311    3.3218    2.3806 H   0  0  0  0  0  0  0  0  0  0  0  0
    0.6500    2.2782    0.4859 H   0  0  0  0  0  0  0  0  0  0  0  0
    1.4177   -1.1953   -0.6183 H   0  0  0  0  0  0  0  0  0  0  0  0
   -1.6341    0.8513    0.4410 H   0  0  0  0  0  0  0  0  0  0  0  0
   -3.0569   -0.6883   -1.7897 H   0  0  0  0  0  0  0  0  0  0  0  0
   -3.5713    0.7730   -0.9699 H   0  0  0  0  0  0  0  0  0  0  0  0
   -3.5271   -0.7526   -0.0784 H   0  0  0  0  0  0  0  0  0  0  0  0
   -1.9481   -1.8834    1.5304 H   0  0  0  0  0  0  0  0  0  0  0  0
   -0.8647   -0.6306    2.1151 H   0  0  0  0  0  0  0  0  0  0  0  0
   -0.2299   -2.2415    1.7320 H   0  0  0  0  0  0  0  0  0  0  0  0
   -1.9212   -2.6889   -0.6838 H   0  0  0  0  0  0  0  0  0  0  0  0
   -0.2374   -3.1111   -0.5541 H   0  0  0  0  0  0  0  0  0  0  0  0
   -1.1631   -1.3237   -2.8564 H   0  0  0  0  0  0  0  0  0  0  0  0
   -2.7003   -3.2541   -2.8044 H   0  0  0  0  0  0  0  0  0  0  0  0
   -1.5907   -3.3635   -4.1732 H   0  0  0  0  0  0  0  0  0  0  0  0
   -1.3239   -4.3715   -2.7387 H   0  0  0  0  0  0  0  0  0  0  0  0
    1.1179   -3.3442   -2.5252 H   0  0  0  0  0  0  0  0  0  0  0  0
    0.6722   -2.5747   -4.0543 H   0  0  0  0  0  0  0  0  0  0  0  0
    1.2813   -1.5925   -2.7392 H   0  0  0  0  0  0  0  0  0  0  0  0
    2.3521   -1.5348    1.6039 H   0  0  0  0  0  0  0  0  0  0  0  0
    3.4484   -0.4579    3.5214 H   0  0  0  0  0  0  0  0  0  0  0  0
  1  2  1  0
  2  3  1  0
  3  4  2  0
  4  5  1  0
  5  6  2  0
  6  7  1  0
  7  8  1  0
  8  9  1  0
  9 10  2  0
  9 11  1  0
 11 12  1  0
 11 13  1  0
 13 14  1  0
 13 15  1  0
 15 16  1  0
 16 17  1  0
 16 18  1  0
  6 19  1  0
 19 20  2  0
 20  3  1  0
 13  7  1  0
  1 21  1  0
  1 22  1  0
  1 23  1  0
  4 24  1  0
  5 25  1  0
  7 26  1  0
 11 27  1  0
 12 28  1  0
 12 29  1  0
 12 30  1  0
 14 31  1  0
 14 32  1  0
 14 33  1  0
 15 34  1  0
 15 35  1  0
 16 36  1  0
 17 37  1  0
 17 38  1  0
 17 39  1  0
 18 40  1  0
 18 41  1  0
 18 42  1  0
 19 43  1  0
 20 44  1  0
M  END
>  <energy_abs>  (11) 
46.87481739273025

>  <SMILES>  (11) 
COc1ccc(C2OC(=O)C(C)C2(C)CC(C)C)cc1

>  <cluster_no>  (11) 
11

>  <ccdc_id>  (11) 
33

>  <initial_conformation_id>  (11) 
251

>  <minimize_method>  (11) 
MMFF

$$$$
