#Put Keywords Here, check Charge and Multiplicity.

 

0  1
C           5.38180         3.29130         1.28120
O           5.05740         1.92010         1.47270
C           3.75340         1.56120         1.27230
C           2.71860         2.40740         0.88090
C           1.42270         1.90420         0.71040
C           1.13580         0.54660         0.92400
C          -0.26070        -0.01640         0.73660
O          -1.24410         1.02320         0.89800
C          -2.35690         0.71040         0.17530
O          -3.37610         1.38020         0.16830
C          -2.13770        -0.58700        -0.56400
C          -2.88100        -0.62670        -1.89020
C          -0.60160        -0.66160        -0.63040
C          -0.06100         0.22480        -1.79320
C          -0.01160        -2.08570        -0.85750
C          -0.54000        -3.36450        -0.16260
C          -0.70170        -3.28920         1.35020
C          -1.79950        -3.93840        -0.81790
C           2.18470        -0.29190         1.32500
C           3.47780         0.21160         1.49350
H           6.44970         3.41390         1.48660
H           4.83280         3.92890         1.98210
H           5.20500         3.59770         0.24490
H           2.88000         3.46490         0.70090
H           0.63470         2.59240         0.40810
H          -0.44190        -0.70180         1.56920
H          -2.54130        -1.35750         0.09790
H          -2.71760         0.27940        -2.48320
H          -2.58590        -1.49470        -2.48690
H          -3.96070        -0.69340        -1.71480
H          -0.37890        -0.15780        -2.76960
H          -0.40630         1.26180        -1.72040
H           1.03470         0.23630        -1.80870
H           1.06310        -2.03210        -0.63890
H          -0.05280        -2.29510        -1.93660
H           0.23970        -4.12020        -0.34100
H          -0.90530        -4.28520         1.75990
H           0.21410        -2.92790         1.82600
H          -1.53450        -2.64690         1.64690
H          -1.98180        -4.95720        -0.45690
H          -2.69570        -3.35680        -0.59510
H          -1.68720        -3.99400        -1.90560
H           2.01140        -1.34770         1.51650
H           4.27880        -0.45500         1.80440

