#Put Keywords Here, check Charge and Multiplicity.

 

0  1
C           4.90090         3.71630         1.16110
O           4.81440         2.30200         1.04030
C           3.55920         1.76170         1.00190
C           3.52390         0.37110         0.90400
C           2.30490        -0.31050         0.85490
C           1.08730         0.38730         0.88960
C          -0.21740        -0.38930         0.83510
O          -1.28920         0.38180         1.40210
C          -2.13490         0.81470         0.42990
O          -3.07140         1.57080         0.63450
C          -1.74520         0.25960        -0.91420
C          -1.24130         1.38920        -1.80470
C          -0.74430        -0.86210        -0.54510
C           0.32840        -1.08680        -1.61990
C          -1.57740        -2.18490        -0.35140
C          -0.77120        -3.45060         0.03260
C          -1.49740        -4.22980         1.13390
C          -0.56320        -4.37150        -1.17390
C           1.13550         1.78440         1.00550
C           2.35870         2.46610         1.05620
H           4.44870         4.21460         0.29720
H           4.45060         4.06100         2.09790
H           5.96130         3.98560         1.18300
H           4.45580        -0.18850         0.87080
H           2.31850        -1.39660         0.79120
H          -0.09320        -1.24040         1.51470
H          -2.64530        -0.16600        -1.37420
H          -1.01620         1.02420        -2.81180
H          -2.00400         2.17000        -1.90370
H          -0.34520         1.86940        -1.40420
H           0.90360        -0.18060        -1.83410
H          -0.13070        -1.40690        -2.56220
H           1.04960        -1.85430        -1.32500
H          -2.34070        -1.99840         0.41670
H          -2.13930        -2.38680        -1.27390
H           0.21390        -3.17470         0.42390
H          -1.61070        -3.61470         2.03310
H          -2.49470        -4.54440         0.80800
H          -0.93340        -5.12600         1.41410
H          -0.03350        -3.86240        -1.98350
H          -1.52000        -4.72850        -1.57070
H           0.02990        -5.24830        -0.89190
H           0.22060         2.37060         1.06860
H           2.33310         3.54720         1.14430

