#Put Keywords Here, check Charge and Multiplicity.

 

0  1
C           5.47030         3.31440         1.58830
O           5.14700         1.97180         1.24850
C           3.81950         1.66850         1.13410
C           2.75540         2.53550         1.35260
C           1.43780         2.08370         1.19760
C           1.14180         0.76230         0.80580
C          -0.31690         0.33040         0.70150
O          -1.08700         1.47100         0.26650
C          -2.21950         1.06850        -0.36320
O          -3.07800         1.82780        -0.78160
C          -2.27610        -0.43340        -0.41870
C          -3.25940        -0.88320         0.65990
C          -0.78060        -0.81850        -0.24350
C          -0.09650        -0.70740        -1.63070
C          -0.55500        -2.21770         0.40590
C          -0.59670        -3.46710        -0.50590
C          -1.96390        -3.74230        -1.12660
C          -0.15830        -4.69840         0.29870
C           2.22920        -0.09810         0.61420
C           3.54730         0.35180         0.76900
H           5.08570         3.57350         2.58020
H           6.56100         3.39700         1.62240
H           5.10710         4.01340         0.82760
H           2.90690         3.56840         1.64720
H           0.63110         2.79150         1.38790
H          -0.63700         0.11280         1.73040
H          -2.64890        -0.72670        -1.40560
H          -4.23960        -0.41750         0.50410
H          -2.92810        -0.59780         1.66400
H          -3.41280        -1.96410         0.64270
H          -0.62080        -1.30610        -2.38340
H          -0.08320         0.32430        -1.99990
H           0.93760        -1.06090        -1.61020
H          -1.24840        -2.36330         1.24270
H           0.42740        -2.21960         0.88800
H           0.13090        -3.34490        -1.31650
H          -2.28800        -2.92680        -1.77580
H          -2.72650        -3.90170        -0.35820
H          -1.92850        -4.64610        -1.74540
H          -0.13900        -5.59160        -0.33490
H          -0.83950        -4.88990         1.13490
H           0.84900        -4.56010         0.70580
H           2.09850        -1.13730         0.33550
H           4.37180        -0.33810         0.60340

