
     RDKit          3D

 44 45  0  0  0  0  0  0  0  0999 V2000
    5.9097    1.6870    1.9133 C   0  0  0  0  0  0  0  0  0  0  0  0
    4.8917    2.5317    1.3924 O   0  0  0  0  0  0  0  0  0  0  0  0
    3.7219    1.9322    1.0193 C   0  0  0  0  0  0  0  0  0  0  0  0
    3.4427    0.5699    1.0673 C   0  0  0  0  0  0  0  0  0  0  0  0
    2.1935    0.0824    0.6500 C   0  0  0  0  0  0  0  0  0  0  0  0
    1.1861    0.9409    0.1900 C   0  0  0  0  0  0  0  0  0  0  0  0
   -0.1711    0.4711   -0.3219 C   0  0  0  0  0  0  0  0  0  0  0  0
   -1.1381    1.5013   -0.0280 O   0  0  0  0  0  0  0  0  0  0  0  0
   -2.3850    0.9726    0.0559 C   0  0  0  0  0  0  0  0  0  0  0  0
   -3.3979    1.6285    0.2358 O   0  0  0  0  0  0  0  0  0  0  0  0
   -2.3319   -0.5160   -0.1531 C   0  0  0  0  0  0  0  0  0  0  0  0
   -2.8105   -0.7849   -1.5783 C   0  0  0  0  0  0  0  0  0  0  0  0
   -0.8495   -0.8358    0.1872 C   0  0  0  0  0  0  0  0  0  0  0  0
   -0.7336   -0.9593    1.7288 C   0  0  0  0  0  0  0  0  0  0  0  0
   -0.2848   -2.0928   -0.5414 C   0  0  0  0  0  0  0  0  0  0  0  0
   -0.5528   -3.4847    0.0788 C   0  0  0  0  0  0  0  0  0  0  0  0
    0.2520   -4.5451   -0.6850 C   0  0  0  0  0  0  0  0  0  0  0  0
   -2.0241   -3.8916    0.0883 C   0  0  0  0  0  0  0  0  0  0  0  0
    1.4992    2.3124    0.1294 C   0  0  0  0  0  0  0  0  0  0  0  0
    2.7430    2.7996    0.5439 C   0  0  0  0  0  0  0  0  0  0  0  0
    6.2475    0.9667    1.1609 H   0  0  0  0  0  0  0  0  0  0  0  0
    6.7643    2.3172    2.1777 H   0  0  0  0  0  0  0  0  0  0  0  0
    5.5752    1.1800    2.8245 H   0  0  0  0  0  0  0  0  0  0  0  0
    4.1750   -0.1487    1.4206 H   0  0  0  0  0  0  0  0  0  0  0  0
    2.0471   -0.9904    0.7055 H   0  0  0  0  0  0  0  0  0  0  0  0
   -0.0782    0.4342   -1.4167 H   0  0  0  0  0  0  0  0  0  0  0  0
   -3.0142   -0.9875    0.5619 H   0  0  0  0  0  0  0  0  0  0  0  0
   -2.1602   -0.3187   -2.3261 H   0  0  0  0  0  0  0  0  0  0  0  0
   -3.8153   -0.3734   -1.7299 H   0  0  0  0  0  0  0  0  0  0  0  0
   -2.8677   -1.8543   -1.7913 H   0  0  0  0  0  0  0  0  0  0  0  0
   -0.9416   -0.0090    2.2332 H   0  0  0  0  0  0  0  0  0  0  0  0
   -1.4463   -1.6905    2.1251 H   0  0  0  0  0  0  0  0  0  0  0  0
    0.2609   -1.2857    2.0434 H   0  0  0  0  0  0  0  0  0  0  0  0
    0.8025   -1.9903   -0.6127 H   0  0  0  0  0  0  0  0  0  0  0  0
   -0.6082   -2.1006   -1.5891 H   0  0  0  0  0  0  0  0  0  0  0  0
   -0.1865   -3.4946    1.1118 H   0  0  0  0  0  0  0  0  0  0  0  0
    1.3230   -4.3177   -0.6563 H   0  0  0  0  0  0  0  0  0  0  0  0
   -0.0562   -4.5980   -1.7348 H   0  0  0  0  0  0  0  0  0  0  0  0
    0.1125   -5.5361   -0.2399 H   0  0  0  0  0  0  0  0  0  0  0  0
   -2.6309   -3.2108    0.6881 H   0  0  0  0  0  0  0  0  0  0  0  0
   -2.4354   -3.9261   -0.9251 H   0  0  0  0  0  0  0  0  0  0  0  0
   -2.1424   -4.8902    0.5240 H   0  0  0  0  0  0  0  0  0  0  0  0
    0.7681    3.0290   -0.2436 H   0  0  0  0  0  0  0  0  0  0  0  0
    2.9456    3.8667    0.4922 H   0  0  0  0  0  0  0  0  0  0  0  0
  1  2  1  0
  2  3  1  0
  3  4  2  0
  4  5  1  0
  5  6  2  0
  6  7  1  0
  7  8  1  0
  8  9  1  0
  9 10  2  0
  9 11  1  0
 11 12  1  0
 11 13  1  0
 13 14  1  0
 13 15  1  0
 15 16  1  0
 16 17  1  0
 16 18  1  0
  6 19  1  0
 19 20  2  0
 20  3  1  0
 13  7  1  0
  1 21  1  0
  1 22  1  0
  1 23  1  0
  4 24  1  0
  5 25  1  0
  7 26  1  0
 11 27  1  0
 12 28  1  0
 12 29  1  0
 12 30  1  0
 14 31  1  0
 14 32  1  0
 14 33  1  0
 15 34  1  0
 15 35  1  0
 16 36  1  0
 17 37  1  0
 17 38  1  0
 17 39  1  0
 18 40  1  0
 18 41  1  0
 18 42  1  0
 19 43  1  0
 20 44  1  0
M  END
>  <energy_abs>  (114) 
47.89593884847154

>  <SMILES>  (114) 
COc1ccc(C2OC(=O)C(C)C2(C)CC(C)C)cc1

>  <cluster_no>  (114) 
114

>  <ccdc_id>  (114) 
33

>  <initial_conformation_id>  (114) 
191

>  <minimize_method>  (114) 
MMFF

$$$$
