#Put Keywords Here, check Charge and Multiplicity.

 

0  1
C           5.66180         2.23710         0.45070
O           4.94830         1.48870         1.42690
C           3.61880         1.27560         1.19020
C           2.95560         0.55740         2.18520
C           1.59310         0.26690         2.06970
C           0.86480         0.67630         0.94400
C          -0.61080         0.36390         0.84590
O          -1.30300         1.55490         0.43230
C          -2.50140         1.20350        -0.10920
O          -3.35280         2.00150        -0.46320
C          -2.60720        -0.29950        -0.17040
C          -3.42090        -0.76360        -1.37120
C          -1.11430        -0.75100        -0.11600
C          -0.48850        -0.66390        -1.51840
C          -1.05880        -2.18020         0.51590
C           0.05320        -3.21410         0.21840
C           0.02440        -3.78300        -1.20090
C           1.45970        -2.77950         0.60370
C           1.53670         1.41830        -0.03900
C           2.90160         1.71000         0.07790
H           5.25820         3.25080         0.35740
H           5.66670         1.72210        -0.51560
H           6.69950         2.32200         0.78750
H           3.50460         0.22390         3.06260
H           1.10960        -0.28650         2.87190
H          -0.97270         0.16590         1.86570
H          -3.12570        -0.60870         0.74800
H          -3.08650        -0.29540        -2.30290
H          -3.37660        -1.85030        -1.48860
H          -4.47320        -0.48540        -1.24290
H          -0.94190        -1.38560        -2.20490
H          -0.62960         0.32550        -1.96790
H           0.58670        -0.85430        -1.50280
H          -1.99800        -2.69210         0.26180
H          -1.10450        -2.06880         1.60860
H          -0.18220        -4.06790         0.87150
H           0.57110        -4.73260        -1.23470
H           0.50310        -3.12240        -1.92740
H          -1.00070        -3.98350        -1.52860
H           2.16660        -3.60560         0.46580
H           1.49810        -2.49940         1.65980
H           1.81710        -1.94490        -0.00220
H           0.99810         1.79460        -0.90660
H           3.36750         2.28550        -0.71490

