
     RDKit          3D

 44 45  0  0  0  0  0  0  0  0999 V2000
    4.9558    3.7520    0.7112 C   0  0  0  0  0  0  0  0  0  0  0  0
    4.8739    2.3323    0.7166 O   0  0  0  0  0  0  0  0  0  0  0  0
    3.6223    1.7867    0.7822 C   0  0  0  0  0  0  0  0  0  0  0  0
    3.5927    0.3931    0.8140 C   0  0  0  0  0  0  0  0  0  0  0  0
    2.3776   -0.2945    0.8808 C   0  0  0  0  0  0  0  0  0  0  0  0
    1.1574    0.3985    0.9084 C   0  0  0  0  0  0  0  0  0  0  0  0
   -0.1457   -0.3870    0.9682 C   0  0  0  0  0  0  0  0  0  0  0  0
   -1.1730    0.3933    1.6087 O   0  0  0  0  0  0  0  0  0  0  0  0
   -2.0392    0.8773    0.6734 C   0  0  0  0  0  0  0  0  0  0  0  0
   -2.9803    1.6092    0.9306 O   0  0  0  0  0  0  0  0  0  0  0  0
   -1.6175    0.4162   -0.6972 C   0  0  0  0  0  0  0  0  0  0  0  0
   -2.7997    0.2611   -1.6420 C   0  0  0  0  0  0  0  0  0  0  0  0
   -0.7807   -0.8509   -0.3730 C   0  0  0  0  0  0  0  0  0  0  0  0
    0.2187   -1.1061   -1.5062 C   0  0  0  0  0  0  0  0  0  0  0  0
   -1.7166   -2.0963   -0.1463 C   0  0  0  0  0  0  0  0  0  0  0  0
   -1.1668   -3.5416   -0.0159 C   0  0  0  0  0  0  0  0  0  0  0  0
   -0.0563   -3.7379    1.0076 C   0  0  0  0  0  0  0  0  0  0  0  0
   -0.7829   -4.1756   -1.3560 C   0  0  0  0  0  0  0  0  0  0  0  0
    1.2005    1.8010    0.8862 C   0  0  0  0  0  0  0  0  0  0  0  0
    2.4200    2.4886    0.8213 C   0  0  0  0  0  0  0  0  0  0  0  0
    4.4655    4.1721   -0.1732 H   0  0  0  0  0  0  0  0  0  0  0  0
    6.0144    4.0255    0.6660 H   0  0  0  0  0  0  0  0  0  0  0  0
    4.5417    4.1753    1.6324 H   0  0  0  0  0  0  0  0  0  0  0  0
    4.5263   -0.1643    0.7907 H   0  0  0  0  0  0  0  0  0  0  0  0
    2.3991   -1.3813    0.9118 H   0  0  0  0  0  0  0  0  0  0  0  0
    0.0266   -1.2299    1.6396 H   0  0  0  0  0  0  0  0  0  0  0  0
   -0.9663    1.2031   -1.1009 H   0  0  0  0  0  0  0  0  0  0  0  0
   -2.5047   -0.2359   -2.5709 H   0  0  0  0  0  0  0  0  0  0  0  0
   -3.6264   -0.2934   -1.1859 H   0  0  0  0  0  0  0  0  0  0  0  0
   -3.1997    1.2469   -1.9060 H   0  0  0  0  0  0  0  0  0  0  0  0
   -0.2914   -1.4719   -2.4039 H   0  0  0  0  0  0  0  0  0  0  0  0
    0.7476   -0.1922   -1.7994 H   0  0  0  0  0  0  0  0  0  0  0  0
    0.9794   -1.8365   -1.2202 H   0  0  0  0  0  0  0  0  0  0  0  0
   -2.3207   -1.9074    0.7524 H   0  0  0  0  0  0  0  0  0  0  0  0
   -2.4404   -2.1430   -0.9684 H   0  0  0  0  0  0  0  0  0  0  0  0
   -2.0198   -4.1349    0.3460 H   0  0  0  0  0  0  0  0  0  0  0  0
   -0.3668   -3.3817    1.9946 H   0  0  0  0  0  0  0  0  0  0  0  0
    0.8631   -3.2253    0.7154 H   0  0  0  0  0  0  0  0  0  0  0  0
    0.1847   -4.8019    1.1116 H   0  0  0  0  0  0  0  0  0  0  0  0
    0.1723   -3.8084   -1.7368 H   0  0  0  0  0  0  0  0  0  0  0  0
   -1.5514   -3.9955   -2.1146 H   0  0  0  0  0  0  0  0  0  0  0  0
   -0.6832   -5.2614   -1.2435 H   0  0  0  0  0  0  0  0  0  0  0  0
    0.2872    2.3903    0.9323 H   0  0  0  0  0  0  0  0  0  0  0  0
    2.3905    3.5732    0.8087 H   0  0  0  0  0  0  0  0  0  0  0  0
  1  2  1  0
  2  3  1  0
  3  4  2  0
  4  5  1  0
  5  6  2  0
  6  7  1  0
  7  8  1  0
  8  9  1  0
  9 10  2  0
  9 11  1  0
 11 12  1  0
 11 13  1  0
 13 14  1  0
 13 15  1  0
 15 16  1  0
 16 17  1  0
 16 18  1  0
  6 19  1  0
 19 20  2  0
 20  3  1  0
 13  7  1  0
  1 21  1  0
  1 22  1  0
  1 23  1  0
  4 24  1  0
  5 25  1  0
  7 26  1  0
 11 27  1  0
 12 28  1  0
 12 29  1  0
 12 30  1  0
 14 31  1  0
 14 32  1  0
 14 33  1  0
 15 34  1  0
 15 35  1  0
 16 36  1  0
 17 37  1  0
 17 38  1  0
 17 39  1  0
 18 40  1  0
 18 41  1  0
 18 42  1  0
 19 43  1  0
 20 44  1  0
M  END
>  <energy_abs>  (117) 
48.81813674772333

>  <SMILES>  (117) 
COc1ccc(C2OC(=O)C(C)C2(C)CC(C)C)cc1

>  <cluster_no>  (117) 
117

>  <ccdc_id>  (117) 
33

>  <initial_conformation_id>  (117) 
186

>  <minimize_method>  (117) 
MMFF

$$$$
