%NProcShared=1
%Mem=10GB

#p B3LYP/6-31G* opt freq

test

0  1
C           5.98570         2.03450         0.33860
O           4.94880         2.14470         1.30500
C           3.69420         1.76980         0.91180
C           2.70770         1.91530         1.88750
C           1.38050         1.56810         1.62040
C           1.01210         1.06060         0.36700
C          -0.41620         0.66320         0.05120
O          -1.34430         1.40540         0.85570
C          -2.48600         0.67850         1.00930
O          -3.48770         1.09020         1.57160
C          -2.34150        -0.67790         0.36160
C          -3.12240        -0.65890        -0.94900
C          -0.80410        -0.82080         0.26630
C          -0.28380        -1.35040         1.62450
C          -0.29370        -1.71020        -0.90160
C          -0.71970        -3.19810        -0.87240
C          -0.96210        -3.70350        -2.30050
C           0.34380        -4.09030        -0.22240
C           2.00990         0.92520        -0.61060
C           3.33920         1.27420        -0.34120
H           5.79000         2.67730        -0.52600
H           6.91470         2.37720         0.80440
H           6.13110         0.99310         0.03290
H           2.97290         2.30690         2.86680
H           0.63800         1.70230         2.40480
H          -0.61480         0.97200        -0.98480
H          -2.76490        -1.43520         1.03100
H          -3.10980        -1.63740        -1.43490
H          -4.17210        -0.40160        -0.76640
H          -2.73020         0.08240        -1.65300
H           0.80080        -1.50140         1.60570
H          -0.50900        -0.66460         2.44880
H          -0.75130        -2.30660         1.88190
H           0.80180        -1.66360        -0.93910
H          -0.62870        -1.25800        -1.84420
H          -1.65650        -3.31200        -0.31580
H          -1.27230        -4.75390        -2.29460
H          -0.05570        -3.62060        -2.91020
H          -1.75370        -3.12870        -2.79180
H           1.29280        -4.03730        -0.76750
H           0.53940        -3.81070         0.81460
H           0.01900        -5.13670        -0.22050
H           1.76200         0.54850        -1.60100
H           4.06980         1.14820        -1.13320

