#Put Keywords Here, check Charge and Multiplicity.

 

0  1
C           5.86020         2.79020         0.96500
O           4.50400         3.20700         1.05720
C           3.54950         2.23340         0.95830
C           2.23630         2.68670         1.08510
C           1.15880         1.79920         1.00270
C           1.37470         0.43170         0.78550
C           0.23940        -0.57500         0.66990
O          -0.88100        -0.15040         1.46530
C          -1.88060         0.31540         0.66040
O          -2.93210         0.77310         1.07600
C          -1.46580         0.21640        -0.78350
C          -2.62590        -0.04020        -1.73150
C          -0.35380        -0.84530        -0.73050
C           0.64750        -0.61550        -1.88400
C          -0.85390        -2.32740        -0.88110
C          -1.91380        -2.91380         0.08670
C          -2.66780        -4.04870        -0.62470
C          -1.31630        -3.47770         1.37880
C           2.70200        -0.01540         0.66670
C           3.77900         0.87560         0.75000
H           6.07180         2.35030        -0.01520
H           6.11670         2.09770         1.77350
H           6.49090         3.67770         1.07440
H           2.04760         3.74420         1.25680
H           0.15530         2.20010         1.12390
H           0.60920        -1.50650         1.11130
H          -1.03550         1.19440        -1.03900
H          -2.27110        -0.20460        -2.75350
H          -3.29590         0.82700        -1.74850
H          -3.23650        -0.89610        -1.43300
H           1.51000        -1.28550        -1.79890
H           1.01860         0.41440        -1.91370
H           0.17760        -0.80640        -2.85570
H          -1.24640        -2.42360        -1.90340
H           0.02550        -2.98710        -0.85700
H          -2.65890        -2.16020         0.35270
H          -3.43650        -4.47690         0.02760
H          -3.17090        -3.67870        -1.52450
H          -1.98630        -4.85350        -0.92110
H          -0.49360        -4.16970         1.17000
H          -2.07460        -4.02510         1.95010
H          -0.94440        -2.69100         2.03690
H           2.91220        -1.07140         0.50530
H           4.78180         0.47440         0.64880

