%NProcShared=1
%Mem=10GB

#p B3LYP/6-31G* opt freq

test

0  1
C           4.62990         1.05700         3.87470
O           3.22770         1.29850         3.85670
C           2.58430         1.11340         2.66710
C           3.16440         0.69500         1.47270
C           2.37720         0.54120         0.32410
C           0.99280         0.79320         0.34560
C           0.18150         0.59890        -0.92360
O          -0.67310         1.74050        -1.11920
C          -1.97310         1.40650        -0.88040
O          -2.90230         2.19480        -0.94410
C          -2.07350        -0.04480        -0.48770
C          -3.36720        -0.68000        -0.97900
C          -0.75730        -0.63010        -1.04300
C          -0.90050        -0.98310        -2.54230
C          -0.34410        -1.88810        -0.22560
C           0.96110        -2.60270        -0.64970
C           0.69460        -3.77360        -1.60270
C           1.69570        -3.13590         0.58420
C           0.42810         1.23360         1.54900
C           1.21440         1.38530         2.69570
H           5.15870         1.72260         3.18300
H           4.85090         0.00620         3.65940
H           4.99630         1.27320         4.88360
H           4.22270         0.47120         1.39920
H           2.86320         0.21570        -0.59450
H           0.88240         0.61250        -1.76690
H          -2.07140        -0.07590         0.60840
H          -3.52850        -0.51600        -2.04920
H          -3.38410        -1.75670        -0.78220
H          -4.22500        -0.23420        -0.46060
H           0.07070        -1.21700        -2.99140
H          -1.55400        -1.85010        -2.68800
H          -1.31890        -0.15040        -3.11960
H          -1.16930        -2.61260        -0.25580
H          -0.27100        -1.60090         0.83150
H           1.63080        -1.90050        -1.15560
H           1.61490        -4.33440        -1.79540
H           0.32280        -3.43040        -2.57040
H          -0.04290        -4.47200        -1.18940
H           2.64590        -3.59690         0.30210
H           1.91800        -2.32990         1.28630
H           1.10070        -3.88480         1.11420
H          -0.62410         1.49570         1.61520
H           0.75520         1.73310         3.61890

