
     RDKit          3D

 44 45  0  0  0  0  0  0  0  0999 V2000
    4.6299    1.0570    3.8747 C   0  0  0  0  0  0  0  0  0  0  0  0
    3.2277    1.2985    3.8567 O   0  0  0  0  0  0  0  0  0  0  0  0
    2.5843    1.1134    2.6671 C   0  0  0  0  0  0  0  0  0  0  0  0
    3.1644    0.6950    1.4727 C   0  0  0  0  0  0  0  0  0  0  0  0
    2.3772    0.5412    0.3241 C   0  0  0  0  0  0  0  0  0  0  0  0
    0.9928    0.7932    0.3456 C   0  0  0  0  0  0  0  0  0  0  0  0
    0.1815    0.5989   -0.9236 C   0  0  0  0  0  0  0  0  0  0  0  0
   -0.6731    1.7405   -1.1192 O   0  0  0  0  0  0  0  0  0  0  0  0
   -1.9731    1.4065   -0.8804 C   0  0  0  0  0  0  0  0  0  0  0  0
   -2.9023    2.1948   -0.9441 O   0  0  0  0  0  0  0  0  0  0  0  0
   -2.0735   -0.0448   -0.4877 C   0  0  0  0  0  0  0  0  0  0  0  0
   -3.3672   -0.6800   -0.9790 C   0  0  0  0  0  0  0  0  0  0  0  0
   -0.7573   -0.6301   -1.0430 C   0  0  0  0  0  0  0  0  0  0  0  0
   -0.9005   -0.9831   -2.5423 C   0  0  0  0  0  0  0  0  0  0  0  0
   -0.3441   -1.8881   -0.2256 C   0  0  0  0  0  0  0  0  0  0  0  0
    0.9611   -2.6027   -0.6497 C   0  0  0  0  0  0  0  0  0  0  0  0
    0.6946   -3.7736   -1.6027 C   0  0  0  0  0  0  0  0  0  0  0  0
    1.6957   -3.1359    0.5842 C   0  0  0  0  0  0  0  0  0  0  0  0
    0.4281    1.2336    1.5490 C   0  0  0  0  0  0  0  0  0  0  0  0
    1.2144    1.3853    2.6957 C   0  0  0  0  0  0  0  0  0  0  0  0
    5.1587    1.7226    3.1830 H   0  0  0  0  0  0  0  0  0  0  0  0
    4.8509    0.0062    3.6594 H   0  0  0  0  0  0  0  0  0  0  0  0
    4.9963    1.2732    4.8836 H   0  0  0  0  0  0  0  0  0  0  0  0
    4.2227    0.4712    1.3992 H   0  0  0  0  0  0  0  0  0  0  0  0
    2.8632    0.2157   -0.5945 H   0  0  0  0  0  0  0  0  0  0  0  0
    0.8824    0.6125   -1.7669 H   0  0  0  0  0  0  0  0  0  0  0  0
   -2.0714   -0.0759    0.6084 H   0  0  0  0  0  0  0  0  0  0  0  0
   -3.5285   -0.5160   -2.0492 H   0  0  0  0  0  0  0  0  0  0  0  0
   -3.3841   -1.7567   -0.7822 H   0  0  0  0  0  0  0  0  0  0  0  0
   -4.2250   -0.2342   -0.4606 H   0  0  0  0  0  0  0  0  0  0  0  0
    0.0707   -1.2170   -2.9914 H   0  0  0  0  0  0  0  0  0  0  0  0
   -1.5540   -1.8501   -2.6880 H   0  0  0  0  0  0  0  0  0  0  0  0
   -1.3189   -0.1504   -3.1196 H   0  0  0  0  0  0  0  0  0  0  0  0
   -1.1693   -2.6126   -0.2558 H   0  0  0  0  0  0  0  0  0  0  0  0
   -0.2710   -1.6009    0.8315 H   0  0  0  0  0  0  0  0  0  0  0  0
    1.6308   -1.9005   -1.1556 H   0  0  0  0  0  0  0  0  0  0  0  0
    1.6149   -4.3344   -1.7954 H   0  0  0  0  0  0  0  0  0  0  0  0
    0.3228   -3.4304   -2.5704 H   0  0  0  0  0  0  0  0  0  0  0  0
   -0.0429   -4.4720   -1.1894 H   0  0  0  0  0  0  0  0  0  0  0  0
    2.6459   -3.5969    0.3021 H   0  0  0  0  0  0  0  0  0  0  0  0
    1.9180   -2.3299    1.2863 H   0  0  0  0  0  0  0  0  0  0  0  0
    1.1007   -3.8848    1.1142 H   0  0  0  0  0  0  0  0  0  0  0  0
   -0.6241    1.4957    1.6152 H   0  0  0  0  0  0  0  0  0  0  0  0
    0.7552    1.7331    3.6189 H   0  0  0  0  0  0  0  0  0  0  0  0
  1  2  1  0
  2  3  1  0
  3  4  2  0
  4  5  1  0
  5  6  2  0
  6  7  1  0
  7  8  1  0
  8  9  1  0
  9 10  2  0
  9 11  1  0
 11 12  1  0
 11 13  1  0
 13 14  1  0
 13 15  1  0
 15 16  1  0
 16 17  1  0
 16 18  1  0
  6 19  1  0
 19 20  2  0
 20  3  1  0
 13  7  1  0
  1 21  1  0
  1 22  1  0
  1 23  1  0
  4 24  1  0
  5 25  1  0
  7 26  1  0
 11 27  1  0
 12 28  1  0
 12 29  1  0
 12 30  1  0
 14 31  1  0
 14 32  1  0
 14 33  1  0
 15 34  1  0
 15 35  1  0
 16 36  1  0
 17 37  1  0
 17 38  1  0
 17 39  1  0
 18 40  1  0
 18 41  1  0
 18 42  1  0
 19 43  1  0
 20 44  1  0
M  END
>  <energy_abs>  (12) 
45.157825218381625

>  <SMILES>  (12) 
COc1ccc(C2OC(=O)C(C)C2(C)CC(C)C)cc1

>  <cluster_no>  (12) 
12

>  <ccdc_id>  (12) 
33

>  <initial_conformation_id>  (12) 
246

>  <minimize_method>  (12) 
MMFF

$$$$
