
     RDKit          3D

 44 45  0  0  0  0  0  0  0  0999 V2000
    5.7159    2.1916   -0.4793 C   0  0  0  0  0  0  0  0  0  0  0  0
    5.1601    1.5677    0.6713 O   0  0  0  0  0  0  0  0  0  0  0  0
    3.8030    1.4018    0.6880 C   0  0  0  0  0  0  0  0  0  0  0  0
    3.3016    0.8036    1.8446 C   0  0  0  0  0  0  0  0  0  0  0  0
    1.9313    0.5731    1.9944 C   0  0  0  0  0  0  0  0  0  0  0  0
    1.0309    0.9334    0.9823 C   0  0  0  0  0  0  0  0  0  0  0  0
   -0.4501    0.6661    1.1566 C   0  0  0  0  0  0  0  0  0  0  0  0
   -1.2319    1.5277    0.3163 O   0  0  0  0  0  0  0  0  0  0  0  0
   -2.4487    0.9500    0.1084 C   0  0  0  0  0  0  0  0  0  0  0  0
   -3.3635    1.4863   -0.4938 O   0  0  0  0  0  0  0  0  0  0  0  0
   -2.4829   -0.4131    0.7583 C   0  0  0  0  0  0  0  0  0  0  0  0
   -3.4070   -1.3681    0.0255 C   0  0  0  0  0  0  0  0  0  0  0  0
   -0.9768   -0.7663    0.8518 C   0  0  0  0  0  0  0  0  0  0  0  0
   -0.7160   -1.7019    2.0384 C   0  0  0  0  0  0  0  0  0  0  0  0
   -0.3816   -1.3243   -0.4884 C   0  0  0  0  0  0  0  0  0  0  0  0
   -0.6020   -2.8213   -0.8245 C   0  0  0  0  0  0  0  0  0  0  0  0
   -0.7410   -2.9998   -2.3418 C   0  0  0  0  0  0  0  0  0  0  0  0
    0.5579   -3.6993   -0.3395 C   0  0  0  0  0  0  0  0  0  0  0  0
    1.5439    1.5407   -0.1744 C   0  0  0  0  0  0  0  0  0  0  0  0
    2.9173    1.7714   -0.3218 C   0  0  0  0  0  0  0  0  0  0  0  0
    5.5353    1.5935   -1.3786 H   0  0  0  0  0  0  0  0  0  0  0  0
    6.7987    2.2556   -0.3345 H   0  0  0  0  0  0  0  0  0  0  0  0
    5.3352    3.2114   -0.5986 H   0  0  0  0  0  0  0  0  0  0  0  0
    3.9860    0.5170    2.6397 H   0  0  0  0  0  0  0  0  0  0  0  0
    1.5783    0.1139    2.9149 H   0  0  0  0  0  0  0  0  0  0  0  0
   -0.7031    0.9584    2.1869 H   0  0  0  0  0  0  0  0  0  0  0  0
   -2.8897   -0.2551    1.7673 H   0  0  0  0  0  0  0  0  0  0  0  0
   -3.4003   -2.3587    0.4885 H   0  0  0  0  0  0  0  0  0  0  0  0
   -3.1527   -1.4599   -1.0342 H   0  0  0  0  0  0  0  0  0  0  0  0
   -4.4389   -1.0000    0.0647 H   0  0  0  0  0  0  0  0  0  0  0  0
    0.3505   -1.9171    2.1511 H   0  0  0  0  0  0  0  0  0  0  0  0
   -1.2484   -2.6516    1.9279 H   0  0  0  0  0  0  0  0  0  0  0  0
   -1.0565   -1.2562    2.9802 H   0  0  0  0  0  0  0  0  0  0  0  0
    0.7024   -1.1625   -0.4975 H   0  0  0  0  0  0  0  0  0  0  0  0
   -0.7679   -0.7088   -1.3117 H   0  0  0  0  0  0  0  0  0  0  0  0
   -1.5200   -3.1933   -0.3641 H   0  0  0  0  0  0  0  0  0  0  0  0
   -1.5959   -2.4334   -2.7257 H   0  0  0  0  0  0  0  0  0  0  0  0
   -0.9010   -4.0527   -2.5976 H   0  0  0  0  0  0  0  0  0  0  0  0
    0.1572   -2.6557   -2.8662 H   0  0  0  0  0  0  0  0  0  0  0  0
    1.5072   -3.3898   -0.7902 H   0  0  0  0  0  0  0  0  0  0  0  0
    0.3867   -4.7470   -0.6107 H   0  0  0  0  0  0  0  0  0  0  0  0
    0.6731   -3.6623    0.7456 H   0  0  0  0  0  0  0  0  0  0  0  0
    0.8762    1.8417   -0.9801 H   0  0  0  0  0  0  0  0  0  0  0  0
    3.2570    2.2429   -1.2379 H   0  0  0  0  0  0  0  0  0  0  0  0
  1  2  1  0
  2  3  1  0
  3  4  2  0
  4  5  1  0
  5  6  2  0
  6  7  1  0
  7  8  1  0
  8  9  1  0
  9 10  2  0
  9 11  1  0
 11 12  1  0
 11 13  1  0
 13 14  1  0
 13 15  1  0
 15 16  1  0
 16 17  1  0
 16 18  1  0
  6 19  1  0
 19 20  2  0
 20  3  1  0
 13  7  1  0
  1 21  1  0
  1 22  1  0
  1 23  1  0
  4 24  1  0
  5 25  1  0
  7 26  1  0
 11 27  1  0
 12 28  1  0
 12 29  1  0
 12 30  1  0
 14 31  1  0
 14 32  1  0
 14 33  1  0
 15 34  1  0
 15 35  1  0
 16 36  1  0
 17 37  1  0
 17 38  1  0
 17 39  1  0
 18 40  1  0
 18 41  1  0
 18 42  1  0
 19 43  1  0
 20 44  1  0
M  END
>  <energy_abs>  (121) 
45.9538674781682

>  <SMILES>  (121) 
COc1ccc(C2OC(=O)C(C)C2(C)CC(C)C)cc1

>  <cluster_no>  (121) 
121

>  <ccdc_id>  (121) 
33

>  <initial_conformation_id>  (121) 
181

>  <minimize_method>  (121) 
MMFF

$$$$
