
     RDKit          3D

 44 45  0  0  0  0  0  0  0  0999 V2000
    5.5338    3.3917    0.6738 C   0  0  0  0  0  0  0  0  0  0  0  0
    5.1685    2.0758    0.2769 O   0  0  0  0  0  0  0  0  0  0  0  0
    3.8677    1.7102    0.4810 C   0  0  0  0  0  0  0  0  0  0  0  0
    3.5441    0.4258    0.0489 C   0  0  0  0  0  0  0  0  0  0  0  0
    2.2457   -0.0807    0.1946 C   0  0  0  0  0  0  0  0  0  0  0  0
    1.2263    0.6907    0.7647 C   0  0  0  0  0  0  0  0  0  0  0  0
   -0.1945    0.1888    0.9979 C   0  0  0  0  0  0  0  0  0  0  0  0
   -1.0862    1.3217    0.9094 O   0  0  0  0  0  0  0  0  0  0  0  0
   -2.3331    0.9188    0.5535 C   0  0  0  0  0  0  0  0  0  0  0  0
   -3.2916    1.6659    0.4470 O   0  0  0  0  0  0  0  0  0  0  0  0
   -2.3598   -0.5742    0.3703 C   0  0  0  0  0  0  0  0  0  0  0  0
   -2.9837   -1.1550    1.6395 C   0  0  0  0  0  0  0  0  0  0  0  0
   -0.8625   -0.8842    0.0831 C   0  0  0  0  0  0  0  0  0  0  0  0
   -0.5886   -0.5659   -1.4070 C   0  0  0  0  0  0  0  0  0  0  0  0
   -0.4305   -2.3259    0.4899 C   0  0  0  0  0  0  0  0  0  0  0  0
   -0.7460   -3.5554   -0.3995 C   0  0  0  0  0  0  0  0  0  0  0  0
    0.1933   -3.6948   -1.6007 C   0  0  0  0  0  0  0  0  0  0  0  0
   -2.1994   -3.6987   -0.8382 C   0  0  0  0  0  0  0  0  0  0  0  0
    1.5795    1.9783    1.2164 C   0  0  0  0  0  0  0  0  0  0  0  0
    2.8775    2.4865    1.0712 C   0  0  0  0  0  0  0  0  0  0  0  0
    5.4219    3.5226    1.7551 H   0  0  0  0  0  0  0  0  0  0  0  0
    4.9609    4.1446    0.1223 H   0  0  0  0  0  0  0  0  0  0  0  0
    6.5910    3.5331    0.4293 H   0  0  0  0  0  0  0  0  0  0  0  0
    4.3128   -0.1941   -0.4074 H   0  0  0  0  0  0  0  0  0  0  0  0
    2.0733   -1.0900   -0.1601 H   0  0  0  0  0  0  0  0  0  0  0  0
   -0.2211   -0.1482    2.0439 H   0  0  0  0  0  0  0  0  0  0  0  0
   -2.9865   -0.8120   -0.4955 H   0  0  0  0  0  0  0  0  0  0  0  0
   -3.0784   -2.2410    1.5919 H   0  0  0  0  0  0  0  0  0  0  0  0
   -2.4071   -0.9022    2.5358 H   0  0  0  0  0  0  0  0  0  0  0  0
   -3.9923   -0.7514    1.7878 H   0  0  0  0  0  0  0  0  0  0  0  0
   -1.2794   -1.0991   -2.0665 H   0  0  0  0  0  0  0  0  0  0  0  0
   -0.7125    0.5005   -1.6285 H   0  0  0  0  0  0  0  0  0  0  0  0
    0.4260   -0.8370   -1.7077 H   0  0  0  0  0  0  0  0  0  0  0  0
   -0.8355   -2.5415    1.4868 H   0  0  0  0  0  0  0  0  0  0  0  0
    0.6501   -2.3413    0.6619 H   0  0  0  0  0  0  0  0  0  0  0  0
   -0.5321   -4.4280    0.2352 H   0  0  0  0  0  0  0  0  0  0  0  0
    1.2354   -3.5255   -1.3115 H   0  0  0  0  0  0  0  0  0  0  0  0
    0.1288   -4.7085   -2.0129 H   0  0  0  0  0  0  0  0  0  0  0  0
   -0.0585   -3.0078   -2.4115 H   0  0  0  0  0  0  0  0  0  0  0  0
   -2.5180   -2.8881   -1.4969 H   0  0  0  0  0  0  0  0  0  0  0  0
   -2.8701   -3.7349    0.0232 H   0  0  0  0  0  0  0  0  0  0  0  0
   -2.3397   -4.6360   -1.3888 H   0  0  0  0  0  0  0  0  0  0  0  0
    0.8337    2.6143    1.6931 H   0  0  0  0  0  0  0  0  0  0  0  0
    3.0738    3.4897    1.4341 H   0  0  0  0  0  0  0  0  0  0  0  0
  1  2  1  0
  2  3  1  0
  3  4  2  0
  4  5  1  0
  5  6  2  0
  6  7  1  0
  7  8  1  0
  8  9  1  0
  9 10  2  0
  9 11  1  0
 11 12  1  0
 11 13  1  0
 13 14  1  0
 13 15  1  0
 15 16  1  0
 16 17  1  0
 16 18  1  0
  6 19  1  0
 19 20  2  0
 20  3  1  0
 13  7  1  0
  1 21  1  0
  1 22  1  0
  1 23  1  0
  4 24  1  0
  5 25  1  0
  7 26  1  0
 11 27  1  0
 12 28  1  0
 12 29  1  0
 12 30  1  0
 14 31  1  0
 14 32  1  0
 14 33  1  0
 15 34  1  0
 15 35  1  0
 16 36  1  0
 17 37  1  0
 17 38  1  0
 17 39  1  0
 18 40  1  0
 18 41  1  0
 18 42  1  0
 19 43  1  0
 20 44  1  0
M  END
>  <energy_abs>  (122) 
51.00173837767281

>  <SMILES>  (122) 
COc1ccc(C2OC(=O)C(C)C2(C)CC(C)C)cc1

>  <cluster_no>  (122) 
122

>  <ccdc_id>  (122) 
33

>  <initial_conformation_id>  (122) 
179

>  <minimize_method>  (122) 
MMFF

$$$$
