
     RDKit          3D

 44 45  0  0  0  0  0  0  0  0999 V2000
    5.9797    2.3231    0.8418 C   0  0  0  0  0  0  0  0  0  0  0  0
    4.7192    2.6805    1.3941 O   0  0  0  0  0  0  0  0  0  0  0  0
    3.6166    2.0690    0.8657 C   0  0  0  0  0  0  0  0  0  0  0  0
    3.6128    1.1131   -0.1470 C   0  0  0  0  0  0  0  0  0  0  0  0
    2.4036    0.5656   -0.5932 C   0  0  0  0  0  0  0  0  0  0  0  0
    1.1746    0.9562   -0.0334 C   0  0  0  0  0  0  0  0  0  0  0  0
   -0.1099    0.3195   -0.5472 C   0  0  0  0  0  0  0  0  0  0  0  0
   -1.2167    1.2245   -0.4017 O   0  0  0  0  0  0  0  0  0  0  0  0
   -1.9858    0.8404    0.6572 C   0  0  0  0  0  0  0  0  0  0  0  0
   -2.9646    1.4562    1.0451 O   0  0  0  0  0  0  0  0  0  0  0  0
   -1.4129   -0.4093    1.2800 C   0  0  0  0  0  0  0  0  0  0  0  0
   -2.4831   -1.2613    1.9344 C   0  0  0  0  0  0  0  0  0  0  0  0
   -0.6021   -1.0160    0.1103 C   0  0  0  0  0  0  0  0  0  0  0  0
    0.5501   -1.8745    0.6370 C   0  0  0  0  0  0  0  0  0  0  0  0
   -1.5042   -1.7567   -0.9567 C   0  0  0  0  0  0  0  0  0  0  0  0
   -1.6266   -3.2977   -1.0816 C   0  0  0  0  0  0  0  0  0  0  0  0
   -0.3459   -3.9957   -1.5433 C   0  0  0  0  0  0  0  0  0  0  0  0
   -2.2389   -4.0170    0.1136 C   0  0  0  0  0  0  0  0  0  0  0  0
    1.1928    1.9272    0.9767 C   0  0  0  0  0  0  0  0  0  0  0  0
    2.4019    2.4722    1.4207 C   0  0  0  0  0  0  0  0  0  0  0  0
    6.0322    2.5792   -0.2216 H   0  0  0  0  0  0  0  0  0  0  0  0
    6.1950    1.2619    1.0045 H   0  0  0  0  0  0  0  0  0  0  0  0
    6.7488    2.9022    1.3619 H   0  0  0  0  0  0  0  0  0  0  0  0
    4.5305    0.7714   -0.6137 H   0  0  0  0  0  0  0  0  0  0  0  0
    2.4319   -0.1765   -1.3893 H   0  0  0  0  0  0  0  0  0  0  0  0
    0.0300    0.1921   -1.6277 H   0  0  0  0  0  0  0  0  0  0  0  0
   -0.7309   -0.0708    2.0717 H   0  0  0  0  0  0  0  0  0  0  0  0
   -2.0628   -2.1883    2.3312 H   0  0  0  0  0  0  0  0  0  0  0  0
   -3.3062   -1.4919    1.2532 H   0  0  0  0  0  0  0  0  0  0  0  0
   -2.9280   -0.7219    2.7791 H   0  0  0  0  0  0  0  0  0  0  0  0
    1.1430   -1.3447    1.3911 H   0  0  0  0  0  0  0  0  0  0  0  0
    0.1913   -2.7783    1.1331 H   0  0  0  0  0  0  0  0  0  0  0  0
    1.2327   -2.1613   -0.1682 H   0  0  0  0  0  0  0  0  0  0  0  0
   -1.1678   -1.4396   -1.9540 H   0  0  0  0  0  0  0  0  0  0  0  0
   -2.5252   -1.3571   -0.8920 H   0  0  0  0  0  0  0  0  0  0  0  0
   -2.3414   -3.4459   -1.9055 H   0  0  0  0  0  0  0  0  0  0  0  0
   -0.5866   -4.9781   -1.9663 H   0  0  0  0  0  0  0  0  0  0  0  0
    0.3539   -4.1732   -0.7235 H   0  0  0  0  0  0  0  0  0  0  0  0
    0.1632   -3.4197   -2.3226 H   0  0  0  0  0  0  0  0  0  0  0  0
   -3.2144   -3.5932    0.3676 H   0  0  0  0  0  0  0  0  0  0  0  0
   -2.4034   -5.0745   -0.1234 H   0  0  0  0  0  0  0  0  0  0  0  0
   -1.5975   -3.9835    0.9957 H   0  0  0  0  0  0  0  0  0  0  0  0
    0.2729    2.2891    1.4296 H   0  0  0  0  0  0  0  0  0  0  0  0
    2.3939    3.2258    2.2050 H   0  0  0  0  0  0  0  0  0  0  0  0
  1  2  1  0
  2  3  1  0
  3  4  2  0
  4  5  1  0
  5  6  2  0
  6  7  1  0
  7  8  1  0
  8  9  1  0
  9 10  2  0
  9 11  1  0
 11 12  1  0
 11 13  1  0
 13 14  1  0
 13 15  1  0
 15 16  1  0
 16 17  1  0
 16 18  1  0
  6 19  1  0
 19 20  2  0
 20  3  1  0
 13  7  1  0
  1 21  1  0
  1 22  1  0
  1 23  1  0
  4 24  1  0
  5 25  1  0
  7 26  1  0
 11 27  1  0
 12 28  1  0
 12 29  1  0
 12 30  1  0
 14 31  1  0
 14 32  1  0
 14 33  1  0
 15 34  1  0
 15 35  1  0
 16 36  1  0
 17 37  1  0
 17 38  1  0
 17 39  1  0
 18 40  1  0
 18 41  1  0
 18 42  1  0
 19 43  1  0
 20 44  1  0
M  END
>  <energy_abs>  (123) 
53.919403804909834

>  <SMILES>  (123) 
COc1ccc(C2OC(=O)C(C)C2(C)CC(C)C)cc1

>  <cluster_no>  (123) 
123

>  <ccdc_id>  (123) 
33

>  <initial_conformation_id>  (123) 
178

>  <minimize_method>  (123) 
MMFF

$$$$
