
     RDKit          3D

 44 45  0  0  0  0  0  0  0  0999 V2000
    6.0135    1.9587    0.0448 C   0  0  0  0  0  0  0  0  0  0  0  0
    5.0448    1.9251    1.0849 O   0  0  0  0  0  0  0  0  0  0  0  0
    3.7587    1.6352    0.7233 C   0  0  0  0  0  0  0  0  0  0  0  0
    3.3107    1.3536   -0.5656 C   0  0  0  0  0  0  0  0  0  0  0  0
    1.9584    1.0699   -0.7967 C   0  0  0  0  0  0  0  0  0  0  0  0
    1.0295    1.0551    0.2551 C   0  0  0  0  0  0  0  0  0  0  0  0
   -0.4294    0.7338   -0.0150 C   0  0  0  0  0  0  0  0  0  0  0  0
   -1.2596    1.4821    0.8749 O   0  0  0  0  0  0  0  0  0  0  0  0
   -2.4531    0.8503    0.9994 C   0  0  0  0  0  0  0  0  0  0  0  0
   -3.4169    1.3379    1.5682 O   0  0  0  0  0  0  0  0  0  0  0  0
   -2.4125   -0.5073    0.3310 C   0  0  0  0  0  0  0  0  0  0  0  0
   -3.1971   -1.4906    1.1923 C   0  0  0  0  0  0  0  0  0  0  0  0
   -0.8915   -0.7551    0.1148 C   0  0  0  0  0  0  0  0  0  0  0  0
   -0.2468   -1.4421    1.3284 C   0  0  0  0  0  0  0  0  0  0  0  0
   -0.5691   -1.4691   -1.2401 C   0  0  0  0  0  0  0  0  0  0  0  0
   -0.4820   -3.0017   -1.4192 C   0  0  0  0  0  0  0  0  0  0  0  0
   -1.7166   -3.7809   -0.9964 C   0  0  0  0  0  0  0  0  0  0  0  0
    0.7860   -3.6240   -0.8308 C   0  0  0  0  0  0  0  0  0  0  0  0
    1.4919    1.3532    1.5451 C   0  0  0  0  0  0  0  0  0  0  0  0
    2.8415    1.6354    1.7740 C   0  0  0  0  0  0  0  0  0  0  0  0
    5.7775    2.7357   -0.6899 H   0  0  0  0  0  0  0  0  0  0  0  0
    6.9790    2.2089    0.4950 H   0  0  0  0  0  0  0  0  0  0  0  0
    6.1132    0.9787   -0.4334 H   0  0  0  0  0  0  0  0  0  0  0  0
    3.9844    1.3497   -1.4159 H   0  0  0  0  0  0  0  0  0  0  0  0
    1.6397    0.8679   -1.8171 H   0  0  0  0  0  0  0  0  0  0  0  0
   -0.6674    1.1164   -1.0188 H   0  0  0  0  0  0  0  0  0  0  0  0
   -2.9194   -0.3895   -0.6351 H   0  0  0  0  0  0  0  0  0  0  0  0
   -4.2427   -1.1704    1.2754 H   0  0  0  0  0  0  0  0  0  0  0  0
   -2.8093   -1.5469    2.2148 H   0  0  0  0  0  0  0  0  0  0  0  0
   -3.2131   -2.4923    0.7693 H   0  0  0  0  0  0  0  0  0  0  0  0
   -0.4087   -0.8708    2.2493 H   0  0  0  0  0  0  0  0  0  0  0  0
    0.8343   -1.5554    1.1985 H   0  0  0  0  0  0  0  0  0  0  0  0
   -0.6621   -2.4384    1.5009 H   0  0  0  0  0  0  0  0  0  0  0  0
   -1.2908   -1.1054   -1.9858 H   0  0  0  0  0  0  0  0  0  0  0  0
    0.3960   -1.0917   -1.5986 H   0  0  0  0  0  0  0  0  0  0  0  0
   -0.3953   -3.1470   -2.5066 H   0  0  0  0  0  0  0  0  0  0  0  0
   -2.6305   -3.2995   -1.3574 H   0  0  0  0  0  0  0  0  0  0  0  0
   -1.6900   -4.7912   -1.4208 H   0  0  0  0  0  0  0  0  0  0  0  0
   -1.7693   -3.8979    0.0882 H   0  0  0  0  0  0  0  0  0  0  0  0
    0.7416   -3.7186    0.2564 H   0  0  0  0  0  0  0  0  0  0  0  0
    0.9306   -4.6337   -1.2319 H   0  0  0  0  0  0  0  0  0  0  0  0
    1.6727   -3.0373   -1.0918 H   0  0  0  0  0  0  0  0  0  0  0  0
    0.8046    1.3734    2.3888 H   0  0  0  0  0  0  0  0  0  0  0  0
    3.1785    1.8625    2.7827 H   0  0  0  0  0  0  0  0  0  0  0  0
  1  2  1  0
  2  3  1  0
  3  4  2  0
  4  5  1  0
  5  6  2  0
  6  7  1  0
  7  8  1  0
  8  9  1  0
  9 10  2  0
  9 11  1  0
 11 12  1  0
 11 13  1  0
 13 14  1  0
 13 15  1  0
 15 16  1  0
 16 17  1  0
 16 18  1  0
  6 19  1  0
 19 20  2  0
 20  3  1  0
 13  7  1  0
  1 21  1  0
  1 22  1  0
  1 23  1  0
  4 24  1  0
  5 25  1  0
  7 26  1  0
 11 27  1  0
 12 28  1  0
 12 29  1  0
 12 30  1  0
 14 31  1  0
 14 32  1  0
 14 33  1  0
 15 34  1  0
 15 35  1  0
 16 36  1  0
 17 37  1  0
 17 38  1  0
 17 39  1  0
 18 40  1  0
 18 41  1  0
 18 42  1  0
 19 43  1  0
 20 44  1  0
M  END
>  <energy_abs>  (125) 
50.84659839883527

>  <SMILES>  (125) 
COc1ccc(C2OC(=O)C(C)C2(C)CC(C)C)cc1

>  <cluster_no>  (125) 
125

>  <ccdc_id>  (125) 
33

>  <initial_conformation_id>  (125) 
173

>  <minimize_method>  (125) 
MMFF

$$$$
