
     RDKit          3D

 44 45  0  0  0  0  0  0  0  0999 V2000
    3.8279    2.2025    4.6716 C   0  0  0  0  0  0  0  0  0  0  0  0
    4.1166    1.5731    3.4295 O   0  0  0  0  0  0  0  0  0  0  0  0
    3.0718    1.4117    2.5623 C   0  0  0  0  0  0  0  0  0  0  0  0
    3.4073    0.8112    1.3485 C   0  0  0  0  0  0  0  0  0  0  0  0
    2.4355    0.5853    0.3697 C   0  0  0  0  0  0  0  0  0  0  0  0
    1.1004    0.9520    0.5889 C   0  0  0  0  0  0  0  0  0  0  0  0
    0.0582    0.6883   -0.4797 C   0  0  0  0  0  0  0  0  0  0  0  0
   -1.0309    1.6170   -0.3711 O   0  0  0  0  0  0  0  0  0  0  0  0
   -2.1591    1.0473   -0.8789 C   0  0  0  0  0  0  0  0  0  0  0  0
   -3.2245    1.6304   -0.9979 O   0  0  0  0  0  0  0  0  0  0  0  0
   -1.8910   -0.3793   -1.2943 C   0  0  0  0  0  0  0  0  0  0  0  0
   -1.7846   -0.4141   -2.8159 C   0  0  0  0  0  0  0  0  0  0  0  0
   -0.6121   -0.7081   -0.4884 C   0  0  0  0  0  0  0  0  0  0  0  0
   -1.0368   -1.1399    0.9360 C   0  0  0  0  0  0  0  0  0  0  0  0
    0.3177   -1.7748   -1.1310 C   0  0  0  0  0  0  0  0  0  0  0  0
   -0.2807   -3.1907   -1.3144 C   0  0  0  0  0  0  0  0  0  0  0  0
    0.2459   -3.8198   -2.6107 C   0  0  0  0  0  0  0  0  0  0  0  0
    0.0748   -4.1227   -0.1505 C   0  0  0  0  0  0  0  0  0  0  0  0
    0.7743    1.5616    1.8100 C   0  0  0  0  0  0  0  0  0  0  0  0
    1.7498    1.7883    2.7889 C   0  0  0  0  0  0  0  0  0  0  0  0
    3.1182    1.6101    5.2585 H   0  0  0  0  0  0  0  0  0  0  0  0
    3.4628    3.2239    4.5216 H   0  0  0  0  0  0  0  0  0  0  0  0
    4.7609    2.2629    5.2403 H   0  0  0  0  0  0  0  0  0  0  0  0
    4.4380    0.5193    1.1614 H   0  0  0  0  0  0  0  0  0  0  0  0
    2.7378    0.1234   -0.5675 H   0  0  0  0  0  0  0  0  0  0  0  0
    0.5295    0.9014   -1.4494 H   0  0  0  0  0  0  0  0  0  0  0  0
   -2.7305   -1.0047   -0.9699 H   0  0  0  0  0  0  0  0  0  0  0  0
   -0.9534    0.1951   -3.1860 H   0  0  0  0  0  0  0  0  0  0  0  0
   -2.6988   -0.0186   -3.2735 H   0  0  0  0  0  0  0  0  0  0  0  0
   -1.6552   -1.4348   -3.1834 H   0  0  0  0  0  0  0  0  0  0  0  0
   -0.1696   -1.4166    1.5451 H   0  0  0  0  0  0  0  0  0  0  0  0
   -1.5738   -0.3451    1.4657 H   0  0  0  0  0  0  0  0  0  0  0  0
   -1.7128   -2.0008    0.9038 H   0  0  0  0  0  0  0  0  0  0  0  0
    1.2350   -1.8606   -0.5353 H   0  0  0  0  0  0  0  0  0  0  0  0
    0.6479   -1.3940   -2.1064 H   0  0  0  0  0  0  0  0  0  0  0  0
   -1.3720   -3.1324   -1.3923 H   0  0  0  0  0  0  0  0  0  0  0  0
    1.3375   -3.9109   -2.5930 H   0  0  0  0  0  0  0  0  0  0  0  0
   -0.1758   -4.8199   -2.7577 H   0  0  0  0  0  0  0  0  0  0  0  0
   -0.0287   -3.2151   -3.4810 H   0  0  0  0  0  0  0  0  0  0  0  0
   -0.3560   -5.1174   -0.3092 H   0  0  0  0  0  0  0  0  0  0  0  0
   -0.3055   -3.7543    0.8041 H   0  0  0  0  0  0  0  0  0  0  0  0
    1.1599   -4.2411   -0.0547 H   0  0  0  0  0  0  0  0  0  0  0  0
   -0.2493    1.8722    2.0137 H   0  0  0  0  0  0  0  0  0  0  0  0
    1.4397    2.2631    3.7138 H   0  0  0  0  0  0  0  0  0  0  0  0
  1  2  1  0
  2  3  1  0
  3  4  2  0
  4  5  1  0
  5  6  2  0
  6  7  1  0
  7  8  1  0
  8  9  1  0
  9 10  2  0
  9 11  1  0
 11 12  1  0
 11 13  1  0
 13 14  1  0
 13 15  1  0
 15 16  1  0
 16 17  1  0
 16 18  1  0
  6 19  1  0
 19 20  2  0
 20  3  1  0
 13  7  1  0
  1 21  1  0
  1 22  1  0
  1 23  1  0
  4 24  1  0
  5 25  1  0
  7 26  1  0
 11 27  1  0
 12 28  1  0
 12 29  1  0
 12 30  1  0
 14 31  1  0
 14 32  1  0
 14 33  1  0
 15 34  1  0
 15 35  1  0
 16 36  1  0
 17 37  1  0
 17 38  1  0
 17 39  1  0
 18 40  1  0
 18 41  1  0
 18 42  1  0
 19 43  1  0
 20 44  1  0
M  END
>  <energy_abs>  (13) 
43.55545027727514

>  <SMILES>  (13) 
COc1ccc(C2OC(=O)C(C)C2(C)CC(C)C)cc1

>  <cluster_no>  (13) 
13

>  <ccdc_id>  (13) 
33

>  <initial_conformation_id>  (13) 
245

>  <minimize_method>  (13) 
MMFF

$$$$
