
     RDKit          3D

 44 45  0  0  0  0  0  0  0  0999 V2000
    5.7623    2.2474    0.0457 C   0  0  0  0  0  0  0  0  0  0  0  0
    5.1893    1.3823    1.0182 O   0  0  0  0  0  0  0  0  0  0  0  0
    3.8321    1.2214    0.9773 C   0  0  0  0  0  0  0  0  0  0  0  0
    2.9618    1.8098    0.0620 C   0  0  0  0  0  0  0  0  0  0  0  0
    1.5864    1.5566    0.1338 C   0  0  0  0  0  0  0  0  0  0  0  0
    1.0560    0.7096    1.1189 C   0  0  0  0  0  0  0  0  0  0  0  0
   -0.4272    0.4123    1.2062 C   0  0  0  0  0  0  0  0  0  0  0  0
   -1.1980    1.4517    0.5886 O   0  0  0  0  0  0  0  0  0  0  0  0
   -2.3921    0.9404    0.1826 C   0  0  0  0  0  0  0  0  0  0  0  0
   -3.3027    1.6127   -0.2736 O   0  0  0  0  0  0  0  0  0  0  0  0
   -2.4313   -0.5528    0.3972 C   0  0  0  0  0  0  0  0  0  0  0  0
   -3.3291   -0.8517    1.5937 C   0  0  0  0  0  0  0  0  0  0  0  0
   -0.9307   -0.8996    0.5531 C   0  0  0  0  0  0  0  0  0  0  0  0
   -0.6614   -2.1051    1.4637 C   0  0  0  0  0  0  0  0  0  0  0  0
   -0.2946   -1.1282   -0.8625 C   0  0  0  0  0  0  0  0  0  0  0  0
   -0.7698   -2.3934   -1.6220 C   0  0  0  0  0  0  0  0  0  0  0  0
   -0.9904   -2.0692   -3.1031 C   0  0  0  0  0  0  0  0  0  0  0  0
    0.2457   -3.5350   -1.5088 C   0  0  0  0  0  0  0  0  0  0  0  0
    1.9408    0.1286    2.0379 C   0  0  0  0  0  0  0  0  0  0  0  0
    3.3132    0.3819    1.9636 C   0  0  0  0  0  0  0  0  0  0  0  0
    5.5962    1.8669   -0.9675 H   0  0  0  0  0  0  0  0  0  0  0  0
    5.3824    3.2688    0.1526 H   0  0  0  0  0  0  0  0  0  0  0  0
    6.8426    2.2746    0.2179 H   0  0  0  0  0  0  0  0  0  0  0  0
    3.3156    2.4724   -0.7207 H   0  0  0  0  0  0  0  0  0  0  0  0
    0.9309    2.0324   -0.5940 H   0  0  0  0  0  0  0  0  0  0  0  0
   -0.6957    0.4453    2.2718 H   0  0  0  0  0  0  0  0  0  0  0  0
   -2.8602   -1.0119   -0.4987 H   0  0  0  0  0  0  0  0  0  0  0  0
   -4.3411   -0.4691    1.4189 H   0  0  0  0  0  0  0  0  0  0  0  0
   -3.4107   -1.9292    1.7664 H   0  0  0  0  0  0  0  0  0  0  0  0
   -2.9631   -0.3791    2.5113 H   0  0  0  0  0  0  0  0  0  0  0  0
    0.4014   -2.3683    1.4695 H   0  0  0  0  0  0  0  0  0  0  0  0
   -0.9464   -1.9036    2.5020 H   0  0  0  0  0  0  0  0  0  0  0  0
   -1.2231   -2.9867    1.1384 H   0  0  0  0  0  0  0  0  0  0  0  0
   -0.4974   -0.2416   -1.4781 H   0  0  0  0  0  0  0  0  0  0  0  0
    0.7975   -1.1761   -0.7684 H   0  0  0  0  0  0  0  0  0  0  0  0
   -1.7236   -2.7497   -1.2187 H   0  0  0  0  0  0  0  0  0  0  0  0
   -1.3280   -2.9558   -3.6504 H   0  0  0  0  0  0  0  0  0  0  0  0
   -1.7568   -1.2955   -3.2201 H   0  0  0  0  0  0  0  0  0  0  0  0
   -0.0687   -1.7102   -3.5737 H   0  0  0  0  0  0  0  0  0  0  0  0
    1.2119   -3.2522   -1.9409 H   0  0  0  0  0  0  0  0  0  0  0  0
    0.4141   -3.8232   -0.4680 H   0  0  0  0  0  0  0  0  0  0  0  0
   -0.1115   -4.4230   -2.0416 H   0  0  0  0  0  0  0  0  0  0  0  0
    1.5734   -0.5250    2.8257 H   0  0  0  0  0  0  0  0  0  0  0  0
    3.9854   -0.0776    2.6845 H   0  0  0  0  0  0  0  0  0  0  0  0
  1  2  1  0
  2  3  1  0
  3  4  2  0
  4  5  1  0
  5  6  2  0
  6  7  1  0
  7  8  1  0
  8  9  1  0
  9 10  2  0
  9 11  1  0
 11 12  1  0
 11 13  1  0
 13 14  1  0
 13 15  1  0
 15 16  1  0
 16 17  1  0
 16 18  1  0
  6 19  1  0
 19 20  2  0
 20  3  1  0
 13  7  1  0
  1 21  1  0
  1 22  1  0
  1 23  1  0
  4 24  1  0
  5 25  1  0
  7 26  1  0
 11 27  1  0
 12 28  1  0
 12 29  1  0
 12 30  1  0
 14 31  1  0
 14 32  1  0
 14 33  1  0
 15 34  1  0
 15 35  1  0
 16 36  1  0
 17 37  1  0
 17 38  1  0
 17 39  1  0
 18 40  1  0
 18 41  1  0
 18 42  1  0
 19 43  1  0
 20 44  1  0
M  END
>  <energy_abs>  (130) 
43.93440829411307

>  <SMILES>  (130) 
COc1ccc(C2OC(=O)C(C)C2(C)CC(C)C)cc1

>  <cluster_no>  (130) 
130

>  <ccdc_id>  (130) 
33

>  <initial_conformation_id>  (130) 
167

>  <minimize_method>  (130) 
MMFF

$$$$
