
     RDKit          3D

 44 45  0  0  0  0  0  0  0  0999 V2000
    5.9736    2.1487    1.8329 C   0  0  0  0  0  0  0  0  0  0  0  0
    4.6362    2.5439    2.1098 O   0  0  0  0  0  0  0  0  0  0  0  0
    3.6432    1.8615    1.4640 C   0  0  0  0  0  0  0  0  0  0  0  0
    3.8165    0.7989    0.5806 C   0  0  0  0  0  0  0  0  0  0  0  0
    2.7044    0.1873   -0.0113 C   0  0  0  0  0  0  0  0  0  0  0  0
    1.3975    0.6215    0.2702 C   0  0  0  0  0  0  0  0  0  0  0  0
    0.2223   -0.0886   -0.3858 C   0  0  0  0  0  0  0  0  0  0  0  0
   -0.8684    0.8299   -0.5732 O   0  0  0  0  0  0  0  0  0  0  0  0
   -1.8613    0.5722    0.3277 C   0  0  0  0  0  0  0  0  0  0  0  0
   -2.8878    1.2254    0.4152 O   0  0  0  0  0  0  0  0  0  0  0  0
   -1.4729   -0.5904    1.2019 C   0  0  0  0  0  0  0  0  0  0  0  0
   -2.6566   -1.4271    1.6596 C   0  0  0  0  0  0  0  0  0  0  0  0
   -0.4024   -1.2943    0.3505 C   0  0  0  0  0  0  0  0  0  0  0  0
    0.5892   -2.0438    1.2675 C   0  0  0  0  0  0  0  0  0  0  0  0
   -0.9620   -2.3687   -0.6505 C   0  0  0  0  0  0  0  0  0  0  0  0
   -2.0289   -1.9921   -1.7105 C   0  0  0  0  0  0  0  0  0  0  0  0
   -1.4340   -1.4193   -2.9999 C   0  0  0  0  0  0  0  0  0  0  0  0
   -2.8373   -3.2476   -2.0752 C   0  0  0  0  0  0  0  0  0  0  0  0
    1.2384    1.6967    1.1547 C   0  0  0  0  0  0  0  0  0  0  0  0
    2.3507    2.3053    1.7445 C   0  0  0  0  0  0  0  0  0  0  0  0
    6.1529    1.1156    2.1485 H   0  0  0  0  0  0  0  0  0  0  0  0
    6.6400    2.7942    2.4132 H   0  0  0  0  0  0  0  0  0  0  0  0
    6.2154    2.2868    0.7738 H   0  0  0  0  0  0  0  0  0  0  0  0
    4.8012    0.4204    0.3281 H   0  0  0  0  0  0  0  0  0  0  0  0
    2.8709   -0.6399   -0.6993 H   0  0  0  0  0  0  0  0  0  0  0  0
    0.5623   -0.3878   -1.3829 H   0  0  0  0  0  0  0  0  0  0  0  0
   -1.0089   -0.1510    2.0955 H   0  0  0  0  0  0  0  0  0  0  0  0
   -3.2954   -1.7468    0.8324 H   0  0  0  0  0  0  0  0  0  0  0  0
   -3.2925   -0.8413    2.3331 H   0  0  0  0  0  0  0  0  0  0  0  0
   -2.3242   -2.3146    2.2065 H   0  0  0  0  0  0  0  0  0  0  0  0
    0.0973   -2.8805    1.7769 H   0  0  0  0  0  0  0  0  0  0  0  0
    1.4262   -2.4553    0.6929 H   0  0  0  0  0  0  0  0  0  0  0  0
    0.9996   -1.3987    2.0515 H   0  0  0  0  0  0  0  0  0  0  0  0
   -1.3736   -3.1836   -0.0381 H   0  0  0  0  0  0  0  0  0  0  0  0
   -0.1086   -2.8198   -1.1772 H   0  0  0  0  0  0  0  0  0  0  0  0
   -2.7400   -1.2667   -1.3081 H   0  0  0  0  0  0  0  0  0  0  0  0
   -0.6422   -2.0641   -3.3956 H   0  0  0  0  0  0  0  0  0  0  0  0
   -2.2042   -1.3252   -3.7739 H   0  0  0  0  0  0  0  0  0  0  0  0
   -1.0217   -0.4199   -2.8535 H   0  0  0  0  0  0  0  0  0  0  0  0
   -2.1922   -4.0273   -2.4947 H   0  0  0  0  0  0  0  0  0  0  0  0
   -3.3394   -3.6582   -1.1927 H   0  0  0  0  0  0  0  0  0  0  0  0
   -3.6120   -3.0135   -2.8135 H   0  0  0  0  0  0  0  0  0  0  0  0
    0.2532    2.0900    1.3938 H   0  0  0  0  0  0  0  0  0  0  0  0
    2.2059    3.1402    2.4265 H   0  0  0  0  0  0  0  0  0  0  0  0
  1  2  1  0
  2  3  1  0
  3  4  2  0
  4  5  1  0
  5  6  2  0
  6  7  1  0
  7  8  1  0
  8  9  1  0
  9 10  2  0
  9 11  1  0
 11 12  1  0
 11 13  1  0
 13 14  1  0
 13 15  1  0
 15 16  1  0
 16 17  1  0
 16 18  1  0
  6 19  1  0
 19 20  2  0
 20  3  1  0
 13  7  1  0
  1 21  1  0
  1 22  1  0
  1 23  1  0
  4 24  1  0
  5 25  1  0
  7 26  1  0
 11 27  1  0
 12 28  1  0
 12 29  1  0
 12 30  1  0
 14 31  1  0
 14 32  1  0
 14 33  1  0
 15 34  1  0
 15 35  1  0
 16 36  1  0
 17 37  1  0
 17 38  1  0
 17 39  1  0
 18 40  1  0
 18 41  1  0
 18 42  1  0
 19 43  1  0
 20 44  1  0
M  END
>  <energy_abs>  (133) 
47.15312471410506

>  <SMILES>  (133) 
COc1ccc(C2OC(=O)C(C)C2(C)CC(C)C)cc1

>  <cluster_no>  (133) 
133

>  <ccdc_id>  (133) 
33

>  <initial_conformation_id>  (133) 
164

>  <minimize_method>  (133) 
MMFF

$$$$
