
     RDKit          3D

 44 45  0  0  0  0  0  0  0  0999 V2000
    4.8421    3.3622    0.3032 C   0  0  0  0  0  0  0  0  0  0  0  0
    4.7581    1.9427    0.2951 O   0  0  0  0  0  0  0  0  0  0  0  0
    3.5297    1.3957    0.5407 C   0  0  0  0  0  0  0  0  0  0  0  0
    3.5023    0.0021    0.5554 C   0  0  0  0  0  0  0  0  0  0  0  0
    2.3093   -0.6864    0.7930 C   0  0  0  0  0  0  0  0  0  0  0  0
    1.1079    0.0052    1.0126 C   0  0  0  0  0  0  0  0  0  0  0  0
   -0.1687   -0.7809    1.2579 C   0  0  0  0  0  0  0  0  0  0  0  0
   -0.8772   -0.2013    2.3692 O   0  0  0  0  0  0  0  0  0  0  0  0
   -1.9831    0.4642    1.9296 C   0  0  0  0  0  0  0  0  0  0  0  0
   -2.7364    1.0879    2.6590 O   0  0  0  0  0  0  0  0  0  0  0  0
   -2.0975    0.3501    0.4301 C   0  0  0  0  0  0  0  0  0  0  0  0
   -3.5478    0.2924   -0.0298 C   0  0  0  0  0  0  0  0  0  0  0  0
   -1.2255   -0.8875    0.1274 C   0  0  0  0  0  0  0  0  0  0  0  0
   -2.0303   -2.1925    0.3427 C   0  0  0  0  0  0  0  0  0  0  0  0
   -0.6766   -0.8178   -1.3261 C   0  0  0  0  0  0  0  0  0  0  0  0
    0.2168   -1.9900   -1.7949 C   0  0  0  0  0  0  0  0  0  0  0  0
    1.3188   -1.4704   -2.7270 C   0  0  0  0  0  0  0  0  0  0  0  0
   -0.5814   -3.0600   -2.5488 C   0  0  0  0  0  0  0  0  0  0  0  0
    1.1513    1.4075    1.0102 C   0  0  0  0  0  0  0  0  0  0  0  0
    2.3487    2.0963    0.7730 C   0  0  0  0  0  0  0  0  0  0  0  0
    4.5737    3.7684    1.2840 H   0  0  0  0  0  0  0  0  0  0  0  0
    4.2245    3.7984   -0.4888 H   0  0  0  0  0  0  0  0  0  0  0  0
    5.8824    3.6365    0.1029 H   0  0  0  0  0  0  0  0  0  0  0  0
    4.4203   -0.5551    0.3836 H   0  0  0  0  0  0  0  0  0  0  0  0
    2.3334   -1.7742    0.8043 H   0  0  0  0  0  0  0  0  0  0  0  0
    0.1229   -1.7864    1.5875 H   0  0  0  0  0  0  0  0  0  0  0  0
   -1.6379    1.2517    0.0067 H   0  0  0  0  0  0  0  0  0  0  0  0
   -4.1262   -0.4603    0.5160 H   0  0  0  0  0  0  0  0  0  0  0  0
   -4.0391    1.2551    0.1515 H   0  0  0  0  0  0  0  0  0  0  0  0
   -3.6174    0.0807   -1.1008 H   0  0  0  0  0  0  0  0  0  0  0  0
   -1.3760   -3.0704    0.3262 H   0  0  0  0  0  0  0  0  0  0  0  0
   -2.7919   -2.3264   -0.4328 H   0  0  0  0  0  0  0  0  0  0  0  0
   -2.5407   -2.2026    1.3126 H   0  0  0  0  0  0  0  0  0  0  0  0
   -1.5233   -0.7232   -2.0194 H   0  0  0  0  0  0  0  0  0  0  0  0
   -0.1233    0.1237   -1.4368 H   0  0  0  0  0  0  0  0  0  0  0  0
    0.7001   -2.4640   -0.9346 H   0  0  0  0  0  0  0  0  0  0  0  0
    1.9429   -0.7253   -2.2242 H   0  0  0  0  0  0  0  0  0  0  0  0
    1.9738   -2.2873   -3.0484 H   0  0  0  0  0  0  0  0  0  0  0  0
    0.8936   -1.0040   -3.6225 H   0  0  0  0  0  0  0  0  0  0  0  0
    0.0783   -3.8697   -2.8799 H   0  0  0  0  0  0  0  0  0  0  0  0
   -1.0661   -2.6408   -3.4375 H   0  0  0  0  0  0  0  0  0  0  0  0
   -1.3573   -3.5103   -1.9266 H   0  0  0  0  0  0  0  0  0  0  0  0
    0.2598    1.9963    1.2101 H   0  0  0  0  0  0  0  0  0  0  0  0
    2.3210    3.1810    0.7849 H   0  0  0  0  0  0  0  0  0  0  0  0
  1  2  1  0
  2  3  1  0
  3  4  2  0
  4  5  1  0
  5  6  2  0
  6  7  1  0
  7  8  1  0
  8  9  1  0
  9 10  2  0
  9 11  1  0
 11 12  1  0
 11 13  1  0
 13 14  1  0
 13 15  1  0
 15 16  1  0
 16 17  1  0
 16 18  1  0
  6 19  1  0
 19 20  2  0
 20  3  1  0
 13  7  1  0
  1 21  1  0
  1 22  1  0
  1 23  1  0
  4 24  1  0
  5 25  1  0
  7 26  1  0
 11 27  1  0
 12 28  1  0
 12 29  1  0
 12 30  1  0
 14 31  1  0
 14 32  1  0
 14 33  1  0
 15 34  1  0
 15 35  1  0
 16 36  1  0
 17 37  1  0
 17 38  1  0
 17 39  1  0
 18 40  1  0
 18 41  1  0
 18 42  1  0
 19 43  1  0
 20 44  1  0
M  END
>  <energy_abs>  (134) 
44.82567907546368

>  <SMILES>  (134) 
COc1ccc(C2OC(=O)C(C)C2(C)CC(C)C)cc1

>  <cluster_no>  (134) 
134

>  <ccdc_id>  (134) 
33

>  <initial_conformation_id>  (134) 
163

>  <minimize_method>  (134) 
MMFF

$$$$
