
     RDKit          3D

 44 45  0  0  0  0  0  0  0  0999 V2000
    4.9171    3.3755    1.8649 C   0  0  0  0  0  0  0  0  0  0  0  0
    4.7416    2.3777    0.8669 O   0  0  0  0  0  0  0  0  0  0  0  0
    3.5774    1.6626    0.9077 C   0  0  0  0  0  0  0  0  0  0  0  0
    3.4563    0.6847   -0.0784 C   0  0  0  0  0  0  0  0  0  0  0  0
    2.3147   -0.1189   -0.1521 C   0  0  0  0  0  0  0  0  0  0  0  0
    1.2545    0.0463    0.7525 C   0  0  0  0  0  0  0  0  0  0  0  0
    0.0291   -0.8512    0.6489 C   0  0  0  0  0  0  0  0  0  0  0  0
   -0.6862   -0.8636    1.8964 O   0  0  0  0  0  0  0  0  0  0  0  0
   -1.8210   -0.1212    1.7983 C   0  0  0  0  0  0  0  0  0  0  0  0
   -2.5478    0.1352    2.7450 O   0  0  0  0  0  0  0  0  0  0  0  0
   -2.0354    0.3476    0.3840 C   0  0  0  0  0  0  0  0  0  0  0  0
   -1.8565    1.8599    0.3107 C   0  0  0  0  0  0  0  0  0  0  0  0
   -1.0492   -0.5424   -0.4262 C   0  0  0  0  0  0  0  0  0  0  0  0
   -0.5337    0.1557   -1.6871 C   0  0  0  0  0  0  0  0  0  0  0  0
   -1.8426   -1.8587   -0.7990 C   0  0  0  0  0  0  0  0  0  0  0  0
   -1.3129   -2.9074   -1.8101 C   0  0  0  0  0  0  0  0  0  0  0  0
    0.1022   -3.4103   -1.5558 C   0  0  0  0  0  0  0  0  0  0  0  0
   -1.4908   -2.4966   -3.2744 C   0  0  0  0  0  0  0  0  0  0  0  0
    1.3991    1.0201    1.7532 C   0  0  0  0  0  0  0  0  0  0  0  0
    2.5445    1.8243    1.8272 C   0  0  0  0  0  0  0  0  0  0  0  0
    4.9311    2.9338    2.8668 H   0  0  0  0  0  0  0  0  0  0  0  0
    4.1498    4.1527    1.7853 H   0  0  0  0  0  0  0  0  0  0  0  0
    5.8891    3.8492    1.6966 H   0  0  0  0  0  0  0  0  0  0  0  0
    4.2624    0.5419   -0.7943 H   0  0  0  0  0  0  0  0  0  0  0  0
    2.2700   -0.8801   -0.9271 H   0  0  0  0  0  0  0  0  0  0  0  0
    0.4109   -1.8683    0.5354 H   0  0  0  0  0  0  0  0  0  0  0  0
   -3.0737    0.1205    0.1148 H   0  0  0  0  0  0  0  0  0  0  0  0
   -2.0901    2.2332   -0.6915 H   0  0  0  0  0  0  0  0  0  0  0  0
   -2.5344    2.3612    1.0110 H   0  0  0  0  0  0  0  0  0  0  0  0
   -0.8437    2.1775    0.5679 H   0  0  0  0  0  0  0  0  0  0  0  0
    0.2272   -0.4383   -2.1978 H   0  0  0  0  0  0  0  0  0  0  0  0
   -0.0715    1.1245   -1.4728 H   0  0  0  0  0  0  0  0  0  0  0  0
   -1.3527    0.3419   -2.3906 H   0  0  0  0  0  0  0  0  0  0  0  0
   -2.8330   -1.5611   -1.1725 H   0  0  0  0  0  0  0  0  0  0  0  0
   -2.0491   -2.4028    0.1342 H   0  0  0  0  0  0  0  0  0  0  0  0
   -1.9704   -3.7798   -1.6792 H   0  0  0  0  0  0  0  0  0  0  0  0
    0.8482   -2.6262   -1.7008 H   0  0  0  0  0  0  0  0  0  0  0  0
    0.1985   -3.8092   -0.5413 H   0  0  0  0  0  0  0  0  0  0  0  0
    0.3488   -4.2250   -2.2461 H   0  0  0  0  0  0  0  0  0  0  0  0
   -1.3769   -3.3704   -3.9262 H   0  0  0  0  0  0  0  0  0  0  0  0
   -2.4899   -2.0855   -3.4515 H   0  0  0  0  0  0  0  0  0  0  0  0
   -0.7520   -1.7618   -3.6003 H   0  0  0  0  0  0  0  0  0  0  0  0
    0.6250    1.1686    2.5042 H   0  0  0  0  0  0  0  0  0  0  0  0
    2.5956    2.5616    2.6217 H   0  0  0  0  0  0  0  0  0  0  0  0
  1  2  1  0
  2  3  1  0
  3  4  2  0
  4  5  1  0
  5  6  2  0
  6  7  1  0
  7  8  1  0
  8  9  1  0
  9 10  2  0
  9 11  1  0
 11 12  1  0
 11 13  1  0
 13 14  1  0
 13 15  1  0
 15 16  1  0
 16 17  1  0
 16 18  1  0
  6 19  1  0
 19 20  2  0
 20  3  1  0
 13  7  1  0
  1 21  1  0
  1 22  1  0
  1 23  1  0
  4 24  1  0
  5 25  1  0
  7 26  1  0
 11 27  1  0
 12 28  1  0
 12 29  1  0
 12 30  1  0
 14 31  1  0
 14 32  1  0
 14 33  1  0
 15 34  1  0
 15 35  1  0
 16 36  1  0
 17 37  1  0
 17 38  1  0
 17 39  1  0
 18 40  1  0
 18 41  1  0
 18 42  1  0
 19 43  1  0
 20 44  1  0
M  END
>  <energy_abs>  (136) 
50.37173455377474

>  <SMILES>  (136) 
COc1ccc(C2OC(=O)C(C)C2(C)CC(C)C)cc1

>  <cluster_no>  (136) 
136

>  <ccdc_id>  (136) 
33

>  <initial_conformation_id>  (136) 
161

>  <minimize_method>  (136) 
MMFF

$$$$
