
     RDKit          3D

 44 45  0  0  0  0  0  0  0  0999 V2000
    5.7148    2.1021    0.1964 C   0  0  0  0  0  0  0  0  0  0  0  0
    4.9370    1.4763    1.2088 O   0  0  0  0  0  0  0  0  0  0  0  0
    3.5916    1.3827    0.9859 C   0  0  0  0  0  0  0  0  0  0  0  0
    2.9119    1.8330   -0.1429 C   0  0  0  0  0  0  0  0  0  0  0  0
    1.5243    1.6697   -0.2409 C   0  0  0  0  0  0  0  0  0  0  0  0
    0.7879    1.0431    0.7791 C   0  0  0  0  0  0  0  0  0  0  0  0
   -0.7164    0.8894    0.6275 C   0  0  0  0  0  0  0  0  0  0  0  0
   -1.3425    0.7784    1.9162 O   0  0  0  0  0  0  0  0  0  0  0  0
   -1.7835   -0.4920    2.1240 C   0  0  0  0  0  0  0  0  0  0  0  0
   -2.2725   -0.8757    3.1750 O   0  0  0  0  0  0  0  0  0  0  0  0
   -1.5666   -1.3491    0.9028 C   0  0  0  0  0  0  0  0  0  0  0  0
   -0.4821   -2.3778    1.1983 C   0  0  0  0  0  0  0  0  0  0  0  0
   -1.2848   -0.3016   -0.1947 C   0  0  0  0  0  0  0  0  0  0  0  0
   -2.6506    0.1635   -0.7711 C   0  0  0  0  0  0  0  0  0  0  0  0
   -0.3629   -0.7768   -1.3525 C   0  0  0  0  0  0  0  0  0  0  0  0
   -0.8942   -1.9379   -2.2303 C   0  0  0  0  0  0  0  0  0  0  0  0
    0.2588   -2.8693   -2.6270 C   0  0  0  0  0  0  0  0  0  0  0  0
   -1.5616   -1.4309   -3.5141 C   0  0  0  0  0  0  0  0  0  0  0  0
    1.4832    0.6146    1.9178 C   0  0  0  0  0  0  0  0  0  0  0  0
    2.8688    0.7778    2.0140 C   0  0  0  0  0  0  0  0  0  0  0  0
    6.7579    2.1000    0.5270 H   0  0  0  0  0  0  0  0  0  0  0  0
    5.4127    3.1449    0.0542 H   0  0  0  0  0  0  0  0  0  0  0  0
    5.6624    1.5430   -0.7437 H   0  0  0  0  0  0  0  0  0  0  0  0
    3.4274    2.3194   -0.9641 H   0  0  0  0  0  0  0  0  0  0  0  0
    1.0203    2.0440   -1.1302 H   0  0  0  0  0  0  0  0  0  0  0  0
   -1.0782    1.8374    0.2069 H   0  0  0  0  0  0  0  0  0  0  0  0
   -2.5040   -1.8790    0.6944 H   0  0  0  0  0  0  0  0  0  0  0  0
   -0.7214   -2.9411    2.1076 H   0  0  0  0  0  0  0  0  0  0  0  0
    0.4984   -1.9231    1.3540 H   0  0  0  0  0  0  0  0  0  0  0  0
   -0.3950   -3.1030    0.3855 H   0  0  0  0  0  0  0  0  0  0  0  0
   -3.2865    0.6172   -0.0017 H   0  0  0  0  0  0  0  0  0  0  0  0
   -3.2172   -0.6732   -1.1919 H   0  0  0  0  0  0  0  0  0  0  0  0
   -2.5075    0.9141   -1.5564 H   0  0  0  0  0  0  0  0  0  0  0  0
   -0.1415    0.0782   -2.0042 H   0  0  0  0  0  0  0  0  0  0  0  0
    0.6010   -1.0783   -0.9250 H   0  0  0  0  0  0  0  0  0  0  0  0
   -1.6238   -2.5323   -1.6693 H   0  0  0  0  0  0  0  0  0  0  0  0
    1.0236   -2.3329   -3.1993 H   0  0  0  0  0  0  0  0  0  0  0  0
    0.7391   -3.2999   -1.7425 H   0  0  0  0  0  0  0  0  0  0  0  0
   -0.1051   -3.6996   -3.2417 H   0  0  0  0  0  0  0  0  0  0  0  0
   -1.9281   -2.2709   -4.1143 H   0  0  0  0  0  0  0  0  0  0  0  0
   -0.8551   -0.8642   -4.1307 H   0  0  0  0  0  0  0  0  0  0  0  0
   -2.4162   -0.7835   -3.3073 H   0  0  0  0  0  0  0  0  0  0  0  0
    0.9625    0.1546    2.7550 H   0  0  0  0  0  0  0  0  0  0  0  0
    3.3879    0.4345    2.9061 H   0  0  0  0  0  0  0  0  0  0  0  0
  1  2  1  0
  2  3  1  0
  3  4  2  0
  4  5  1  0
  5  6  2  0
  6  7  1  0
  7  8  1  0
  8  9  1  0
  9 10  2  0
  9 11  1  0
 11 12  1  0
 11 13  1  0
 13 14  1  0
 13 15  1  0
 15 16  1  0
 16 17  1  0
 16 18  1  0
  6 19  1  0
 19 20  2  0
 20  3  1  0
 13  7  1  0
  1 21  1  0
  1 22  1  0
  1 23  1  0
  4 24  1  0
  5 25  1  0
  7 26  1  0
 11 27  1  0
 12 28  1  0
 12 29  1  0
 12 30  1  0
 14 31  1  0
 14 32  1  0
 14 33  1  0
 15 34  1  0
 15 35  1  0
 16 36  1  0
 17 37  1  0
 17 38  1  0
 17 39  1  0
 18 40  1  0
 18 41  1  0
 18 42  1  0
 19 43  1  0
 20 44  1  0
M  END
>  <energy_abs>  (142) 
46.72423170216345

>  <SMILES>  (142) 
COc1ccc(C2OC(=O)C(C)C2(C)CC(C)C)cc1

>  <cluster_no>  (142) 
142

>  <ccdc_id>  (142) 
33

>  <initial_conformation_id>  (142) 
155

>  <minimize_method>  (142) 
MMFF

$$$$
