#Put Keywords Here, check Charge and Multiplicity.

 

0  1
C           5.71480         2.10210         0.19640
O           4.93700         1.47630         1.20880
C           3.59160         1.38270         0.98590
C           2.91190         1.83300        -0.14290
C           1.52430         1.66970        -0.24090
C           0.78790         1.04310         0.77910
C          -0.71640         0.88940         0.62750
O          -1.34250         0.77840         1.91620
C          -1.78350        -0.49200         2.12400
O          -2.27250        -0.87570         3.17500
C          -1.56660        -1.34910         0.90280
C          -0.48210        -2.37780         1.19830
C          -1.28480        -0.30160        -0.19470
C          -2.65060         0.16350        -0.77110
C          -0.36290        -0.77680        -1.35250
C          -0.89420        -1.93790        -2.23030
C           0.25880        -2.86930        -2.62700
C          -1.56160        -1.43090        -3.51410
C           1.48320         0.61460         1.91780
C           2.86880         0.77780         2.01400
H           6.75790         2.10000         0.52700
H           5.41270         3.14490         0.05420
H           5.66240         1.54300        -0.74370
H           3.42740         2.31940        -0.96410
H           1.02030         2.04400        -1.13020
H          -1.07820         1.83740         0.20690
H          -2.50400        -1.87900         0.69440
H          -0.72140        -2.94110         2.10760
H           0.49840        -1.92310         1.35400
H          -0.39500        -3.10300         0.38550
H          -3.28650         0.61720        -0.00170
H          -3.21720        -0.67320        -1.19190
H          -2.50750         0.91410        -1.55640
H          -0.14150         0.07820        -2.00420
H           0.60100        -1.07830        -0.92500
H          -1.62380        -2.53230        -1.66930
H           1.02360        -2.33290        -3.19930
H           0.73910        -3.29990        -1.74250
H          -0.10510        -3.69960        -3.24170
H          -1.92810        -2.27090        -4.11430
H          -0.85510        -0.86420        -4.13070
H          -2.41620        -0.78350        -3.30730
H           0.96250         0.15460         2.75500
H           3.38790         0.43450         2.90610

