%NProcShared=1
%Mem=10GB

#p B3LYP/6-31G* opt freq

test

0  1
C           5.06370         2.88920         2.77910
O           4.96210         2.21720         1.53000
C           3.72430         1.75740         1.17580
C           2.55840         1.87010         1.92980
C           1.35030         1.35030         1.44650
C           1.28490         0.70090         0.20500
C          -0.00450         0.12320        -0.35460
O          -1.13740         0.78430         0.22930
C          -1.80530        -0.05350         1.06560
O          -2.75350         0.29230         1.75300
C          -1.20610        -1.43440         1.04710
C          -0.56260        -1.70810         2.40370
C          -0.28000        -1.39110        -0.18040
C           0.98900        -2.25200        -0.00140
C          -0.99070        -1.96120        -1.46760
C          -2.26460        -1.27820        -2.02920
C          -3.55840        -1.79770        -1.39700
C          -2.34180        -1.52450        -3.54420
C           2.46420         0.60880        -0.55110
C           3.66850         1.12650        -0.06670
H           4.80810         2.22140         3.60850
H           4.44540         3.79290         2.79310
H           6.10570         3.19710         2.90910
H           2.54780         2.36140         2.89710
H           0.45870         1.47420         2.05840
H          -0.01900         0.39060        -1.41900
H          -2.00080        -2.17100         0.89900
H          -0.15920        -2.72450         2.45070
H          -1.30380        -1.61550         3.20580
H           0.24300        -1.00570         2.63290
H           1.62650        -2.21240        -0.89170
H           0.72350        -3.30350         0.15990
H           1.59890        -1.93840         0.85130
H          -1.20870        -3.02630        -1.30570
H          -0.23290        -1.94040        -2.26470
H          -2.21850        -0.19450        -1.88990
H          -4.43340        -1.38890        -1.91490
H          -3.61900        -2.88980        -1.45340
H          -3.65260        -1.50470        -0.35080
H          -2.38960        -2.59520        -3.77080
H          -3.22860        -1.04600        -3.97370
H          -1.46570        -1.10680        -4.05190
H           2.45820         0.13170        -1.52910
H           4.57170         1.04090        -0.66630

