
     RDKit          3D

 44 45  0  0  0  0  0  0  0  0999 V2000
    5.0637    2.8892    2.7791 C   0  0  0  0  0  0  0  0  0  0  0  0
    4.9621    2.2172    1.5300 O   0  0  0  0  0  0  0  0  0  0  0  0
    3.7243    1.7574    1.1758 C   0  0  0  0  0  0  0  0  0  0  0  0
    2.5584    1.8701    1.9298 C   0  0  0  0  0  0  0  0  0  0  0  0
    1.3503    1.3503    1.4465 C   0  0  0  0  0  0  0  0  0  0  0  0
    1.2849    0.7009    0.2050 C   0  0  0  0  0  0  0  0  0  0  0  0
   -0.0045    0.1232   -0.3546 C   0  0  0  0  0  0  0  0  0  0  0  0
   -1.1374    0.7843    0.2293 O   0  0  0  0  0  0  0  0  0  0  0  0
   -1.8053   -0.0535    1.0656 C   0  0  0  0  0  0  0  0  0  0  0  0
   -2.7535    0.2923    1.7530 O   0  0  0  0  0  0  0  0  0  0  0  0
   -1.2061   -1.4344    1.0471 C   0  0  0  0  0  0  0  0  0  0  0  0
   -0.5626   -1.7081    2.4037 C   0  0  0  0  0  0  0  0  0  0  0  0
   -0.2800   -1.3911   -0.1804 C   0  0  0  0  0  0  0  0  0  0  0  0
    0.9890   -2.2520   -0.0014 C   0  0  0  0  0  0  0  0  0  0  0  0
   -0.9907   -1.9612   -1.4676 C   0  0  0  0  0  0  0  0  0  0  0  0
   -2.2646   -1.2782   -2.0292 C   0  0  0  0  0  0  0  0  0  0  0  0
   -3.5584   -1.7977   -1.3970 C   0  0  0  0  0  0  0  0  0  0  0  0
   -2.3418   -1.5245   -3.5442 C   0  0  0  0  0  0  0  0  0  0  0  0
    2.4642    0.6088   -0.5511 C   0  0  0  0  0  0  0  0  0  0  0  0
    3.6685    1.1265   -0.0667 C   0  0  0  0  0  0  0  0  0  0  0  0
    4.8081    2.2214    3.6085 H   0  0  0  0  0  0  0  0  0  0  0  0
    4.4454    3.7929    2.7931 H   0  0  0  0  0  0  0  0  0  0  0  0
    6.1057    3.1971    2.9091 H   0  0  0  0  0  0  0  0  0  0  0  0
    2.5478    2.3614    2.8971 H   0  0  0  0  0  0  0  0  0  0  0  0
    0.4587    1.4742    2.0584 H   0  0  0  0  0  0  0  0  0  0  0  0
   -0.0190    0.3906   -1.4190 H   0  0  0  0  0  0  0  0  0  0  0  0
   -2.0008   -2.1710    0.8990 H   0  0  0  0  0  0  0  0  0  0  0  0
   -0.1592   -2.7245    2.4507 H   0  0  0  0  0  0  0  0  0  0  0  0
   -1.3038   -1.6155    3.2058 H   0  0  0  0  0  0  0  0  0  0  0  0
    0.2430   -1.0057    2.6329 H   0  0  0  0  0  0  0  0  0  0  0  0
    1.6265   -2.2124   -0.8917 H   0  0  0  0  0  0  0  0  0  0  0  0
    0.7235   -3.3035    0.1599 H   0  0  0  0  0  0  0  0  0  0  0  0
    1.5989   -1.9384    0.8513 H   0  0  0  0  0  0  0  0  0  0  0  0
   -1.2087   -3.0263   -1.3057 H   0  0  0  0  0  0  0  0  0  0  0  0
   -0.2329   -1.9404   -2.2647 H   0  0  0  0  0  0  0  0  0  0  0  0
   -2.2185   -0.1945   -1.8899 H   0  0  0  0  0  0  0  0  0  0  0  0
   -4.4334   -1.3889   -1.9149 H   0  0  0  0  0  0  0  0  0  0  0  0
   -3.6190   -2.8898   -1.4534 H   0  0  0  0  0  0  0  0  0  0  0  0
   -3.6526   -1.5047   -0.3508 H   0  0  0  0  0  0  0  0  0  0  0  0
   -2.3896   -2.5952   -3.7708 H   0  0  0  0  0  0  0  0  0  0  0  0
   -3.2286   -1.0460   -3.9737 H   0  0  0  0  0  0  0  0  0  0  0  0
   -1.4657   -1.1068   -4.0519 H   0  0  0  0  0  0  0  0  0  0  0  0
    2.4582    0.1317   -1.5291 H   0  0  0  0  0  0  0  0  0  0  0  0
    4.5717    1.0409   -0.6663 H   0  0  0  0  0  0  0  0  0  0  0  0
  1  2  1  0
  2  3  1  0
  3  4  2  0
  4  5  1  0
  5  6  2  0
  6  7  1  0
  7  8  1  0
  8  9  1  0
  9 10  2  0
  9 11  1  0
 11 12  1  0
 11 13  1  0
 13 14  1  0
 13 15  1  0
 15 16  1  0
 16 17  1  0
 16 18  1  0
  6 19  1  0
 19 20  2  0
 20  3  1  0
 13  7  1  0
  1 21  1  0
  1 22  1  0
  1 23  1  0
  4 24  1  0
  5 25  1  0
  7 26  1  0
 11 27  1  0
 12 28  1  0
 12 29  1  0
 12 30  1  0
 14 31  1  0
 14 32  1  0
 14 33  1  0
 15 34  1  0
 15 35  1  0
 16 36  1  0
 17 37  1  0
 17 38  1  0
 17 39  1  0
 18 40  1  0
 18 41  1  0
 18 42  1  0
 19 43  1  0
 20 44  1  0
M  END
>  <energy_abs>  (143) 
48.05840605783716

>  <SMILES>  (143) 
COc1ccc(C2OC(=O)C(C)C2(C)CC(C)C)cc1

>  <cluster_no>  (143) 
143

>  <ccdc_id>  (143) 
33

>  <initial_conformation_id>  (143) 
152

>  <minimize_method>  (143) 
MMFF

$$$$
