#Put Keywords Here, check Charge and Multiplicity.

 

0  1
C           5.25840         3.37690         0.31830
O           5.00970         1.97730         0.34280
C           3.72970         1.58090         0.61410
C           2.64250         2.41960         0.85220
C           1.37860         1.87760         1.11710
C           1.17740         0.48900         1.14600
C          -0.20410        -0.06950         1.42070
O          -0.12770        -1.40120         1.94600
C          -1.28550        -2.05870         1.66440
O          -1.55990        -3.17020         2.08700
C          -2.17640        -1.21400         0.78660
C          -3.32820        -0.67750         1.63070
C          -1.18380        -0.16760         0.22420
C          -1.81970         1.19600        -0.07750
C          -0.48500        -0.74260        -1.05720
C          -1.39380        -0.92430        -2.30000
C          -1.21730         0.22190        -3.30130
C          -1.07430        -2.24930        -2.99950
C           2.27990        -0.34410         0.91140
C           3.54010         0.19910         0.64670
H           4.68260         3.86610        -0.47430
H           6.32000         3.52410         0.09740
H           5.05510         3.83150         1.29350
H           2.74180         3.49980         0.84130
H           0.55030         2.55760         1.30560
H          -0.63680         0.53710         2.22920
H          -2.57740        -1.85520        -0.00420
H          -4.01800        -0.08250         1.02440
H          -3.90190        -1.50350         2.06610
H          -2.97550        -0.05980         2.46340
H          -2.68330         1.09730        -0.74310
H          -1.10260         1.87070        -0.55640
H          -2.16780         1.69430         0.83390
H           0.35280        -0.09250        -1.33870
H          -0.03260        -1.70910        -0.79800
H          -2.44820        -0.95480        -2.00540
H          -0.18670         0.27330        -3.66930
H          -1.87460         0.08260        -4.16650
H          -1.46370         1.18870        -2.85500
H          -0.02980        -2.28450        -3.32780
H          -1.24850        -3.09490        -2.32550
H          -1.71160        -2.38970        -3.87910
H           2.17170        -1.42690         0.93140
H           4.38280        -0.46420         0.46660

