
     RDKit          3D

 44 45  0  0  0  0  0  0  0  0999 V2000
    5.2584    3.3769    0.3183 C   0  0  0  0  0  0  0  0  0  0  0  0
    5.0097    1.9773    0.3428 O   0  0  0  0  0  0  0  0  0  0  0  0
    3.7297    1.5809    0.6141 C   0  0  0  0  0  0  0  0  0  0  0  0
    2.6425    2.4196    0.8522 C   0  0  0  0  0  0  0  0  0  0  0  0
    1.3786    1.8776    1.1171 C   0  0  0  0  0  0  0  0  0  0  0  0
    1.1774    0.4890    1.1460 C   0  0  0  0  0  0  0  0  0  0  0  0
   -0.2041   -0.0695    1.4207 C   0  0  0  0  0  0  0  0  0  0  0  0
   -0.1277   -1.4012    1.9460 O   0  0  0  0  0  0  0  0  0  0  0  0
   -1.2855   -2.0587    1.6644 C   0  0  0  0  0  0  0  0  0  0  0  0
   -1.5599   -3.1702    2.0870 O   0  0  0  0  0  0  0  0  0  0  0  0
   -2.1764   -1.2140    0.7866 C   0  0  0  0  0  0  0  0  0  0  0  0
   -3.3282   -0.6775    1.6307 C   0  0  0  0  0  0  0  0  0  0  0  0
   -1.1838   -0.1676    0.2242 C   0  0  0  0  0  0  0  0  0  0  0  0
   -1.8197    1.1960   -0.0775 C   0  0  0  0  0  0  0  0  0  0  0  0
   -0.4850   -0.7426   -1.0572 C   0  0  0  0  0  0  0  0  0  0  0  0
   -1.3938   -0.9243   -2.3000 C   0  0  0  0  0  0  0  0  0  0  0  0
   -1.2173    0.2219   -3.3013 C   0  0  0  0  0  0  0  0  0  0  0  0
   -1.0743   -2.2493   -2.9995 C   0  0  0  0  0  0  0  0  0  0  0  0
    2.2799   -0.3441    0.9114 C   0  0  0  0  0  0  0  0  0  0  0  0
    3.5401    0.1991    0.6467 C   0  0  0  0  0  0  0  0  0  0  0  0
    4.6826    3.8661   -0.4743 H   0  0  0  0  0  0  0  0  0  0  0  0
    6.3200    3.5241    0.0974 H   0  0  0  0  0  0  0  0  0  0  0  0
    5.0551    3.8315    1.2935 H   0  0  0  0  0  0  0  0  0  0  0  0
    2.7418    3.4998    0.8413 H   0  0  0  0  0  0  0  0  0  0  0  0
    0.5503    2.5576    1.3056 H   0  0  0  0  0  0  0  0  0  0  0  0
   -0.6368    0.5371    2.2292 H   0  0  0  0  0  0  0  0  0  0  0  0
   -2.5774   -1.8552   -0.0042 H   0  0  0  0  0  0  0  0  0  0  0  0
   -4.0180   -0.0825    1.0244 H   0  0  0  0  0  0  0  0  0  0  0  0
   -3.9019   -1.5035    2.0661 H   0  0  0  0  0  0  0  0  0  0  0  0
   -2.9755   -0.0598    2.4634 H   0  0  0  0  0  0  0  0  0  0  0  0
   -2.6833    1.0973   -0.7431 H   0  0  0  0  0  0  0  0  0  0  0  0
   -1.1026    1.8707   -0.5564 H   0  0  0  0  0  0  0  0  0  0  0  0
   -2.1678    1.6943    0.8339 H   0  0  0  0  0  0  0  0  0  0  0  0
    0.3528   -0.0925   -1.3387 H   0  0  0  0  0  0  0  0  0  0  0  0
   -0.0326   -1.7091   -0.7980 H   0  0  0  0  0  0  0  0  0  0  0  0
   -2.4482   -0.9548   -2.0054 H   0  0  0  0  0  0  0  0  0  0  0  0
   -0.1867    0.2733   -3.6693 H   0  0  0  0  0  0  0  0  0  0  0  0
   -1.8746    0.0826   -4.1665 H   0  0  0  0  0  0  0  0  0  0  0  0
   -1.4637    1.1887   -2.8550 H   0  0  0  0  0  0  0  0  0  0  0  0
   -0.0298   -2.2845   -3.3278 H   0  0  0  0  0  0  0  0  0  0  0  0
   -1.2485   -3.0949   -2.3255 H   0  0  0  0  0  0  0  0  0  0  0  0
   -1.7116   -2.3897   -3.8791 H   0  0  0  0  0  0  0  0  0  0  0  0
    2.1717   -1.4269    0.9314 H   0  0  0  0  0  0  0  0  0  0  0  0
    4.3828   -0.4642    0.4666 H   0  0  0  0  0  0  0  0  0  0  0  0
  1  2  1  0
  2  3  1  0
  3  4  2  0
  4  5  1  0
  5  6  2  0
  6  7  1  0
  7  8  1  0
  8  9  1  0
  9 10  2  0
  9 11  1  0
 11 12  1  0
 11 13  1  0
 13 14  1  0
 13 15  1  0
 15 16  1  0
 16 17  1  0
 16 18  1  0
  6 19  1  0
 19 20  2  0
 20  3  1  0
 13  7  1  0
  1 21  1  0
  1 22  1  0
  1 23  1  0
  4 24  1  0
  5 25  1  0
  7 26  1  0
 11 27  1  0
 12 28  1  0
 12 29  1  0
 12 30  1  0
 14 31  1  0
 14 32  1  0
 14 33  1  0
 15 34  1  0
 15 35  1  0
 16 36  1  0
 17 37  1  0
 17 38  1  0
 17 39  1  0
 18 40  1  0
 18 41  1  0
 18 42  1  0
 19 43  1  0
 20 44  1  0
M  END
>  <energy_abs>  (144) 
44.294851747791526

>  <SMILES>  (144) 
COc1ccc(C2OC(=O)C(C)C2(C)CC(C)C)cc1

>  <cluster_no>  (144) 
144

>  <ccdc_id>  (144) 
33

>  <initial_conformation_id>  (144) 
151

>  <minimize_method>  (144) 
MMFF

$$$$
