
     RDKit          3D

 44 45  0  0  0  0  0  0  0  0999 V2000
    5.4660    2.8211    0.0759 C   0  0  0  0  0  0  0  0  0  0  0  0
    4.2303    3.0098    0.7534 O   0  0  0  0  0  0  0  0  0  0  0  0
    3.3769    1.9424    0.7922 C   0  0  0  0  0  0  0  0  0  0  0  0
    3.5916    0.6969    0.2070 C   0  0  0  0  0  0  0  0  0  0  0  0
    2.6266   -0.3111    0.3235 C   0  0  0  0  0  0  0  0  0  0  0  0
    1.4274   -0.0942    1.0239 C   0  0  0  0  0  0  0  0  0  0  0  0
    0.4011   -1.2127    1.1013 C   0  0  0  0  0  0  0  0  0  0  0  0
   -0.2611   -1.1755    2.3737 O   0  0  0  0  0  0  0  0  0  0  0  0
   -1.5286   -0.7032    2.2275 C   0  0  0  0  0  0  0  0  0  0  0  0
   -2.2800   -0.4877    3.1651 O   0  0  0  0  0  0  0  0  0  0  0  0
   -1.8446   -0.4600    0.7704 C   0  0  0  0  0  0  0  0  0  0  0  0
   -3.2939   -0.8395    0.4882 C   0  0  0  0  0  0  0  0  0  0  0  0
   -0.7485   -1.2628    0.0439 C   0  0  0  0  0  0  0  0  0  0  0  0
   -1.1222   -2.7558   -0.1195 C   0  0  0  0  0  0  0  0  0  0  0  0
   -0.3171   -0.6431   -1.3198 C   0  0  0  0  0  0  0  0  0  0  0  0
   -1.3602   -0.3810   -2.4309 C   0  0  0  0  0  0  0  0  0  0  0  0
   -1.9106   -1.6433   -3.0914 C   0  0  0  0  0  0  0  0  0  0  0  0
   -0.7117    0.4914   -3.5191 C   0  0  0  0  0  0  0  0  0  0  0  0
    1.2268    1.1616    1.6128 C   0  0  0  0  0  0  0  0  0  0  0  0
    2.1923    2.1661    1.4944 C   0  0  0  0  0  0  0  0  0  0  0  0
    5.3050    2.6093   -0.9863 H   0  0  0  0  0  0  0  0  0  0  0  0
    6.0611    2.0342    0.5509 H   0  0  0  0  0  0  0  0  0  0  0  0
    6.0320    3.7549    0.1468 H   0  0  0  0  0  0  0  0  0  0  0  0
    4.4974    0.4741   -0.3468 H   0  0  0  0  0  0  0  0  0  0  0  0
    2.8215   -1.2743   -0.1449 H   0  0  0  0  0  0  0  0  0  0  0  0
    0.9613   -2.1572    1.0879 H   0  0  0  0  0  0  0  0  0  0  0  0
   -1.7076    0.6134    0.5887 H   0  0  0  0  0  0  0  0  0  0  0  0
   -3.9705   -0.1426    0.9965 H   0  0  0  0  0  0  0  0  0  0  0  0
   -3.5372   -1.8389    0.8652 H   0  0  0  0  0  0  0  0  0  0  0  0
   -3.5319   -0.8050   -0.5762 H   0  0  0  0  0  0  0  0  0  0  0  0
   -0.3289   -3.2991   -0.6458 H   0  0  0  0  0  0  0  0  0  0  0  0
   -1.2592   -3.2451    0.8523 H   0  0  0  0  0  0  0  0  0  0  0  0
   -2.0491   -2.9077   -0.6713 H   0  0  0  0  0  0  0  0  0  0  0  0
    0.1236    0.3393   -1.1098 H   0  0  0  0  0  0  0  0  0  0  0  0
    0.4965   -1.2509   -1.7392 H   0  0  0  0  0  0  0  0  0  0  0  0
   -2.1927    0.2000   -2.0214 H   0  0  0  0  0  0  0  0  0  0  0  0
   -2.4187   -1.4052   -4.0328 H   0  0  0  0  0  0  0  0  0  0  0  0
   -1.1135   -2.3599   -3.3142 H   0  0  0  0  0  0  0  0  0  0  0  0
   -2.6568   -2.1320   -2.4631 H   0  0  0  0  0  0  0  0  0  0  0  0
   -0.3485    1.4358   -3.0996 H   0  0  0  0  0  0  0  0  0  0  0  0
   -1.4346    0.7388   -4.3041 H   0  0  0  0  0  0  0  0  0  0  0  0
    0.1357   -0.0220   -3.9864 H   0  0  0  0  0  0  0  0  0  0  0  0
    0.3267    1.3812    2.1816 H   0  0  0  0  0  0  0  0  0  0  0  0
    2.0195    3.1333    1.9613 H   0  0  0  0  0  0  0  0  0  0  0  0
  1  2  1  0
  2  3  1  0
  3  4  2  0
  4  5  1  0
  5  6  2  0
  6  7  1  0
  7  8  1  0
  8  9  1  0
  9 10  2  0
  9 11  1  0
 11 12  1  0
 11 13  1  0
 13 14  1  0
 13 15  1  0
 15 16  1  0
 16 17  1  0
 16 18  1  0
  6 19  1  0
 19 20  2  0
 20  3  1  0
 13  7  1  0
  1 21  1  0
  1 22  1  0
  1 23  1  0
  4 24  1  0
  5 25  1  0
  7 26  1  0
 11 27  1  0
 12 28  1  0
 12 29  1  0
 12 30  1  0
 14 31  1  0
 14 32  1  0
 14 33  1  0
 15 34  1  0
 15 35  1  0
 16 36  1  0
 17 37  1  0
 17 38  1  0
 17 39  1  0
 18 40  1  0
 18 41  1  0
 18 42  1  0
 19 43  1  0
 20 44  1  0
M  END
>  <energy_abs>  (146) 
47.39953585482867

>  <SMILES>  (146) 
COc1ccc(C2OC(=O)C(C)C2(C)CC(C)C)cc1

>  <cluster_no>  (146) 
146

>  <ccdc_id>  (146) 
33

>  <initial_conformation_id>  (146) 
149

>  <minimize_method>  (146) 
MMFF

$$$$
