#Put Keywords Here, check Charge and Multiplicity.

 

0  1
C           5.46600         2.82110         0.07590
O           4.23030         3.00980         0.75340
C           3.37690         1.94240         0.79220
C           3.59160         0.69690         0.20700
C           2.62660        -0.31110         0.32350
C           1.42740        -0.09420         1.02390
C           0.40110        -1.21270         1.10130
O          -0.26110        -1.17550         2.37370
C          -1.52860        -0.70320         2.22750
O          -2.28000        -0.48770         3.16510
C          -1.84460        -0.46000         0.77040
C          -3.29390        -0.83950         0.48820
C          -0.74850        -1.26280         0.04390
C          -1.12220        -2.75580        -0.11950
C          -0.31710        -0.64310        -1.31980
C          -1.36020        -0.38100        -2.43090
C          -1.91060        -1.64330        -3.09140
C          -0.71170         0.49140        -3.51910
C           1.22680         1.16160         1.61280
C           2.19230         2.16610         1.49440
H           5.30500         2.60930        -0.98630
H           6.06110         2.03420         0.55090
H           6.03200         3.75490         0.14680
H           4.49740         0.47410        -0.34680
H           2.82150        -1.27430        -0.14490
H           0.96130        -2.15720         1.08790
H          -1.70760         0.61340         0.58870
H          -3.97050        -0.14260         0.99650
H          -3.53720        -1.83890         0.86520
H          -3.53190        -0.80500        -0.57620
H          -0.32890        -3.29910        -0.64580
H          -1.25920        -3.24510         0.85230
H          -2.04910        -2.90770        -0.67130
H           0.12360         0.33930        -1.10980
H           0.49650        -1.25090        -1.73920
H          -2.19270         0.20000        -2.02140
H          -2.41870        -1.40520        -4.03280
H          -1.11350        -2.35990        -3.31420
H          -2.65680        -2.13200        -2.46310
H          -0.34850         1.43580        -3.09960
H          -1.43460         0.73880        -4.30410
H           0.13570        -0.02200        -3.98640
H           0.32670         1.38120         2.18160
H           2.01950         3.13330         1.96130

