
     RDKit          3D

 44 45  0  0  0  0  0  0  0  0999 V2000
    5.9587    1.1826    0.9059 C   0  0  0  0  0  0  0  0  0  0  0  0
    4.9109    1.8407    0.2052 O   0  0  0  0  0  0  0  0  0  0  0  0
    3.6394    1.3950    0.4363 C   0  0  0  0  0  0  0  0  0  0  0  0
    2.6432    2.0843   -0.2547 C   0  0  0  0  0  0  0  0  0  0  0  0
    1.2980    1.7315   -0.1114 C   0  0  0  0  0  0  0  0  0  0  0  0
    0.9182    0.6642    0.7139 C   0  0  0  0  0  0  0  0  0  0  0  0
   -0.5438    0.2970    0.8626 C   0  0  0  0  0  0  0  0  0  0  0  0
   -0.8157    0.1183    2.2637 O   0  0  0  0  0  0  0  0  0  0  0  0
   -1.8589   -0.7376    2.4256 C   0  0  0  0  0  0  0  0  0  0  0  0
   -2.3527   -1.0181    3.5057 O   0  0  0  0  0  0  0  0  0  0  0  0
   -2.3263   -1.2566    1.0900 C   0  0  0  0  0  0  0  0  0  0  0  0
   -3.6390   -0.5569    0.7480 C   0  0  0  0  0  0  0  0  0  0  0  0
   -1.0890   -0.9790    0.1781 C   0  0  0  0  0  0  0  0  0  0  0  0
   -0.1695   -2.2147    0.3360 C   0  0  0  0  0  0  0  0  0  0  0  0
   -1.5141   -0.7863   -1.3074 C   0  0  0  0  0  0  0  0  0  0  0  0
   -0.5064   -0.3418   -2.3913 C   0  0  0  0  0  0  0  0  0  0  0  0
    0.6661   -1.2891   -2.6227 C   0  0  0  0  0  0  0  0  0  0  0  0
   -1.2615   -0.1618   -3.7190 C   0  0  0  0  0  0  0  0  0  0  0  0
    1.9276   -0.0038    1.4250 C   0  0  0  0  0  0  0  0  0  0  0  0
    3.2751    0.3513    1.2832 C   0  0  0  0  0  0  0  0  0  0  0  0
    6.9025    1.6549    0.6165 H   0  0  0  0  0  0  0  0  0  0  0  0
    5.8454    1.3014    1.9886 H   0  0  0  0  0  0  0  0  0  0  0  0
    6.0166    0.1252    0.6273 H   0  0  0  0  0  0  0  0  0  0  0  0
    2.9163    2.9109   -0.9064 H   0  0  0  0  0  0  0  0  0  0  0  0
    0.5511    2.3094   -0.6513 H   0  0  0  0  0  0  0  0  0  0  0  0
   -1.1419    1.1665    0.5563 H   0  0  0  0  0  0  0  0  0  0  0  0
   -2.5090   -2.3345    1.1763 H   0  0  0  0  0  0  0  0  0  0  0  0
   -4.0636   -0.9457   -0.1827 H   0  0  0  0  0  0  0  0  0  0  0  0
   -3.5141    0.5269    0.6519 H   0  0  0  0  0  0  0  0  0  0  0  0
   -4.3810   -0.7240    1.5373 H   0  0  0  0  0  0  0  0  0  0  0  0
   -0.6116   -3.0901   -0.1542 H   0  0  0  0  0  0  0  0  0  0  0  0
    0.8225   -2.0704   -0.0886 H   0  0  0  0  0  0  0  0  0  0  0  0
   -0.0200   -2.4819    1.3887 H   0  0  0  0  0  0  0  0  0  0  0  0
   -1.9926   -1.7171   -1.6441 H   0  0  0  0  0  0  0  0  0  0  0  0
   -2.3052   -0.0261   -1.3308 H   0  0  0  0  0  0  0  0  0  0  0  0
   -0.1108    0.6418   -2.1301 H   0  0  0  0  0  0  0  0  0  0  0  0
    1.4215   -1.1808   -1.8416 H   0  0  0  0  0  0  0  0  0  0  0  0
    1.1752   -1.0628   -3.5665 H   0  0  0  0  0  0  0  0  0  0  0  0
    0.3382   -2.3326   -2.6628 H   0  0  0  0  0  0  0  0  0  0  0  0
   -1.6798   -1.1116   -4.0695 H   0  0  0  0  0  0  0  0  0  0  0  0
   -0.5951    0.2238   -4.4982 H   0  0  0  0  0  0  0  0  0  0  0  0
   -2.0842    0.5528   -3.6083 H   0  0  0  0  0  0  0  0  0  0  0  0
    1.6734   -0.8073    2.1140 H   0  0  0  0  0  0  0  0  0  0  0  0
    4.0096   -0.2044    1.8563 H   0  0  0  0  0  0  0  0  0  0  0  0
  1  2  1  0
  2  3  1  0
  3  4  2  0
  4  5  1  0
  5  6  2  0
  6  7  1  0
  7  8  1  0
  8  9  1  0
  9 10  2  0
  9 11  1  0
 11 12  1  0
 11 13  1  0
 13 14  1  0
 13 15  1  0
 15 16  1  0
 16 17  1  0
 16 18  1  0
  6 19  1  0
 19 20  2  0
 20  3  1  0
 13  7  1  0
  1 21  1  0
  1 22  1  0
  1 23  1  0
  4 24  1  0
  5 25  1  0
  7 26  1  0
 11 27  1  0
 12 28  1  0
 12 29  1  0
 12 30  1  0
 14 31  1  0
 14 32  1  0
 14 33  1  0
 15 34  1  0
 15 35  1  0
 16 36  1  0
 17 37  1  0
 17 38  1  0
 17 39  1  0
 18 40  1  0
 18 41  1  0
 18 42  1  0
 19 43  1  0
 20 44  1  0
M  END
>  <energy_abs>  (148) 
48.24886673396447

>  <SMILES>  (148) 
COc1ccc(C2OC(=O)C(C)C2(C)CC(C)C)cc1

>  <cluster_no>  (148) 
148

>  <ccdc_id>  (148) 
33

>  <initial_conformation_id>  (148) 
146

>  <minimize_method>  (148) 
MMFF

$$$$
