
     RDKit          3D

 44 45  0  0  0  0  0  0  0  0999 V2000
    6.0095    2.1637    1.7936 C   0  0  0  0  0  0  0  0  0  0  0  0
    5.4227    1.3757    0.7654 O   0  0  0  0  0  0  0  0  0  0  0  0
    4.0650    1.2256    0.8040 C   0  0  0  0  0  0  0  0  0  0  0  0
    3.1997    1.7974    1.7292 C   0  0  0  0  0  0  0  0  0  0  0  0
    1.8218    1.5550    1.6458 C   0  0  0  0  0  0  0  0  0  0  0  0
    1.2677    0.7248    0.6504 C   0  0  0  0  0  0  0  0  0  0  0  0
   -0.2454    0.5439    0.5954 C   0  0  0  0  0  0  0  0  0  0  0  0
   -0.7472    0.5927    1.9479 O   0  0  0  0  0  0  0  0  0  0  0  0
   -1.9200   -0.0826    2.0451 C   0  0  0  0  0  0  0  0  0  0  0  0
   -2.5883   -0.1526    3.0634 O   0  0  0  0  0  0  0  0  0  0  0  0
   -2.2876   -0.6776    0.7136 C   0  0  0  0  0  0  0  0  0  0  0  0
   -3.3741    0.2115    0.1121 C   0  0  0  0  0  0  0  0  0  0  0  0
   -0.9114   -0.7296   -0.0066 C   0  0  0  0  0  0  0  0  0  0  0  0
   -0.1792   -2.0139    0.4617 C   0  0  0  0  0  0  0  0  0  0  0  0
   -1.0022   -0.6458   -1.5607 C   0  0  0  0  0  0  0  0  0  0  0  0
   -1.2776   -1.9462   -2.3526 C   0  0  0  0  0  0  0  0  0  0  0  0
   -1.1298   -1.6675   -3.8546 C   0  0  0  0  0  0  0  0  0  0  0  0
   -2.6536   -2.5550   -2.0951 C   0  0  0  0  0  0  0  0  0  0  0  0
    2.1563    0.1792   -0.2835 C   0  0  0  0  0  0  0  0  0  0  0  0
    3.5343    0.4208   -0.2018 C   0  0  0  0  0  0  0  0  0  0  0  0
    5.8226    1.7285    2.7809 H   0  0  0  0  0  0  0  0  0  0  0  0
    7.0918    2.1708    1.6326 H   0  0  0  0  0  0  0  0  0  0  0  0
    5.6589    3.1999    1.7447 H   0  0  0  0  0  0  0  0  0  0  0  0
    3.5551    2.4395    2.5280 H   0  0  0  0  0  0  0  0  0  0  0  0
    1.1757    2.0299    2.3841 H   0  0  0  0  0  0  0  0  0  0  0  0
   -0.6336    1.4379    0.0870 H   0  0  0  0  0  0  0  0  0  0  0  0
   -2.6847   -1.6836    0.8850 H   0  0  0  0  0  0  0  0  0  0  0  0
   -3.0197    1.2326   -0.0643 H   0  0  0  0  0  0  0  0  0  0  0  0
   -3.7495   -0.1900   -0.8314 H   0  0  0  0  0  0  0  0  0  0  0  0
   -4.2304    0.2851    0.7928 H   0  0  0  0  0  0  0  0  0  0  0  0
    0.0601   -1.9828    1.5306 H   0  0  0  0  0  0  0  0  0  0  0  0
    0.7571   -2.1752   -0.0787 H   0  0  0  0  0  0  0  0  0  0  0  0
   -0.7950   -2.9055    0.3011 H   0  0  0  0  0  0  0  0  0  0  0  0
   -0.0563   -0.2473   -1.9402 H   0  0  0  0  0  0  0  0  0  0  0  0
   -1.7346    0.1145   -1.8570 H   0  0  0  0  0  0  0  0  0  0  0  0
   -0.5174   -2.6923   -2.0941 H   0  0  0  0  0  0  0  0  0  0  0  0
   -0.1280   -1.2892   -4.0846 H   0  0  0  0  0  0  0  0  0  0  0  0
   -1.8599   -0.9252   -4.1949 H   0  0  0  0  0  0  0  0  0  0  0  0
   -1.2793   -2.5827   -4.4376 H   0  0  0  0  0  0  0  0  0  0  0  0
   -2.7811   -2.8461   -1.0508 H   0  0  0  0  0  0  0  0  0  0  0  0
   -3.4546   -1.8600   -2.3646 H   0  0  0  0  0  0  0  0  0  0  0  0
   -2.7899   -3.4611   -2.6963 H   0  0  0  0  0  0  0  0  0  0  0  0
    1.8195   -0.4514   -1.0980 H   0  0  0  0  0  0  0  0  0  0  0  0
    4.2008   -0.0256   -0.9365 H   0  0  0  0  0  0  0  0  0  0  0  0
  1  2  1  0
  2  3  1  0
  3  4  2  0
  4  5  1  0
  5  6  2  0
  6  7  1  0
  7  8  1  0
  8  9  1  0
  9 10  2  0
  9 11  1  0
 11 12  1  0
 11 13  1  0
 13 14  1  0
 13 15  1  0
 15 16  1  0
 16 17  1  0
 16 18  1  0
  6 19  1  0
 19 20  2  0
 20  3  1  0
 13  7  1  0
  1 21  1  0
  1 22  1  0
  1 23  1  0
  4 24  1  0
  5 25  1  0
  7 26  1  0
 11 27  1  0
 12 28  1  0
 12 29  1  0
 12 30  1  0
 14 31  1  0
 14 32  1  0
 14 33  1  0
 15 34  1  0
 15 35  1  0
 16 36  1  0
 17 37  1  0
 17 38  1  0
 17 39  1  0
 18 40  1  0
 18 41  1  0
 18 42  1  0
 19 43  1  0
 20 44  1  0
M  END
>  <energy_abs>  (150) 
47.46965766412822

>  <SMILES>  (150) 
COc1ccc(C2OC(=O)C(C)C2(C)CC(C)C)cc1

>  <cluster_no>  (150) 
150

>  <ccdc_id>  (150) 
33

>  <initial_conformation_id>  (150) 
142

>  <minimize_method>  (150) 
MMFF

$$$$
