
     RDKit          3D

 44 45  0  0  0  0  0  0  0  0999 V2000
    5.3398    2.6887    2.1160 C   0  0  0  0  0  0  0  0  0  0  0  0
    4.9659    2.0537    0.8997 O   0  0  0  0  0  0  0  0  0  0  0  0
    3.7699    1.3919    0.8918 C   0  0  0  0  0  0  0  0  0  0  0  0
    3.4524    0.7713   -0.3154 C   0  0  0  0  0  0  0  0  0  0  0  0
    2.2574    0.0602   -0.4614 C   0  0  0  0  0  0  0  0  0  0  0  0
    1.3392   -0.0355    0.5955 C   0  0  0  0  0  0  0  0  0  0  0  0
    0.0514   -0.8251    0.4071 C   0  0  0  0  0  0  0  0  0  0  0  0
   -0.5104   -1.1773    1.6838 O   0  0  0  0  0  0  0  0  0  0  0  0
   -1.5934   -0.4014    1.9546 C   0  0  0  0  0  0  0  0  0  0  0  0
   -2.1841   -0.4097    3.0229 O   0  0  0  0  0  0  0  0  0  0  0  0
   -1.9379    0.4690    0.7761 C   0  0  0  0  0  0  0  0  0  0  0  0
   -1.6518    1.9283    1.1118 C   0  0  0  0  0  0  0  0  0  0  0  0
   -1.1229   -0.1794   -0.3767 C   0  0  0  0  0  0  0  0  0  0  0  0
   -0.7262    0.8304   -1.4617 C   0  0  0  0  0  0  0  0  0  0  0  0
   -2.0391   -1.3010   -1.0070 C   0  0  0  0  0  0  0  0  0  0  0  0
   -1.6721   -1.9017   -2.3864 C   0  0  0  0  0  0  0  0  0  0  0  0
   -0.3468   -2.6566   -2.4127 C   0  0  0  0  0  0  0  0  0  0  0  0
   -2.7929   -2.8505   -2.8351 C   0  0  0  0  0  0  0  0  0  0  0  0
    1.6817    0.5763    1.8119 C   0  0  0  0  0  0  0  0  0  0  0  0
    2.8804    1.2878    1.9577 C   0  0  0  0  0  0  0  0  0  0  0  0
    5.4540    1.9584    2.9239 H   0  0  0  0  0  0  0  0  0  0  0  0
    6.3120    3.1656    1.9589 H   0  0  0  0  0  0  0  0  0  0  0  0
    4.6249    3.4721    2.3884 H   0  0  0  0  0  0  0  0  0  0  0  0
    4.1455    0.8366   -1.1508 H   0  0  0  0  0  0  0  0  0  0  0  0
    2.0586   -0.4209   -1.4158 H   0  0  0  0  0  0  0  0  0  0  0  0
    0.3431   -1.7788   -0.0398 H   0  0  0  0  0  0  0  0  0  0  0  0
   -3.0147    0.3703    0.5954 H   0  0  0  0  0  0  0  0  0  0  0  0
   -2.1999    2.2300    2.0117 H   0  0  0  0  0  0  0  0  0  0  0  0
   -0.5937    2.1161    1.3068 H   0  0  0  0  0  0  0  0  0  0  0  0
   -1.9734    2.5867    0.2986 H   0  0  0  0  0  0  0  0  0  0  0  0
   -0.1549    1.6741   -1.0625 H   0  0  0  0  0  0  0  0  0  0  0  0
   -1.6176    1.2453   -1.9462 H   0  0  0  0  0  0  0  0  0  0  0  0
   -0.1093    0.3734   -2.2405 H   0  0  0  0  0  0  0  0  0  0  0  0
   -2.1597   -2.1213   -0.2860 H   0  0  0  0  0  0  0  0  0  0  0  0
   -3.0435   -0.8708   -1.1310 H   0  0  0  0  0  0  0  0  0  0  0  0
   -1.6258   -1.0965   -3.1288 H   0  0  0  0  0  0  0  0  0  0  0  0
   -0.3142   -3.4329   -1.6412 H   0  0  0  0  0  0  0  0  0  0  0  0
   -0.1965   -3.1444   -3.3824 H   0  0  0  0  0  0  0  0  0  0  0  0
    0.4989   -1.9817   -2.2671 H   0  0  0  0  0  0  0  0  0  0  0  0
   -3.7533   -2.3260   -2.8824 H   0  0  0  0  0  0  0  0  0  0  0  0
   -2.8996   -3.6939   -2.1443 H   0  0  0  0  0  0  0  0  0  0  0  0
   -2.5873   -3.2530   -3.8328 H   0  0  0  0  0  0  0  0  0  0  0  0
    1.0247    0.5055    2.6771 H   0  0  0  0  0  0  0  0  0  0  0  0
    3.0864    1.7411    2.9218 H   0  0  0  0  0  0  0  0  0  0  0  0
  1  2  1  0
  2  3  1  0
  3  4  2  0
  4  5  1  0
  5  6  2  0
  6  7  1  0
  7  8  1  0
  8  9  1  0
  9 10  2  0
  9 11  1  0
 11 12  1  0
 11 13  1  0
 13 14  1  0
 13 15  1  0
 15 16  1  0
 16 17  1  0
 16 18  1  0
  6 19  1  0
 19 20  2  0
 20  3  1  0
 13  7  1  0
  1 21  1  0
  1 22  1  0
  1 23  1  0
  4 24  1  0
  5 25  1  0
  7 26  1  0
 11 27  1  0
 12 28  1  0
 12 29  1  0
 12 30  1  0
 14 31  1  0
 14 32  1  0
 14 33  1  0
 15 34  1  0
 15 35  1  0
 16 36  1  0
 17 37  1  0
 17 38  1  0
 17 39  1  0
 18 40  1  0
 18 41  1  0
 18 42  1  0
 19 43  1  0
 20 44  1  0
M  END
>  <energy_abs>  (151) 
46.73405106361579

>  <SMILES>  (151) 
COc1ccc(C2OC(=O)C(C)C2(C)CC(C)C)cc1

>  <cluster_no>  (151) 
151

>  <ccdc_id>  (151) 
33

>  <initial_conformation_id>  (151) 
141

>  <minimize_method>  (151) 
MMFF

$$$$
