%NProcShared=1
%Mem=10GB

#p B3LYP/6-31G* opt freq

test

0  1
C           5.33980         2.68870         2.11600
O           4.96590         2.05370         0.89970
C           3.76990         1.39190         0.89180
C           3.45240         0.77130        -0.31540
C           2.25740         0.06020        -0.46140
C           1.33920        -0.03550         0.59550
C           0.05140        -0.82510         0.40710
O          -0.51040        -1.17730         1.68380
C          -1.59340        -0.40140         1.95460
O          -2.18410        -0.40970         3.02290
C          -1.93790         0.46900         0.77610
C          -1.65180         1.92830         1.11180
C          -1.12290        -0.17940        -0.37670
C          -0.72620         0.83040        -1.46170
C          -2.03910        -1.30100        -1.00700
C          -1.67210        -1.90170        -2.38640
C          -0.34680        -2.65660        -2.41270
C          -2.79290        -2.85050        -2.83510
C           1.68170         0.57630         1.81190
C           2.88040         1.28780         1.95770
H           5.45400         1.95840         2.92390
H           6.31200         3.16560         1.95890
H           4.62490         3.47210         2.38840
H           4.14550         0.83660        -1.15080
H           2.05860        -0.42090        -1.41580
H           0.34310        -1.77880        -0.03980
H          -3.01470         0.37030         0.59540
H          -2.19990         2.23000         2.01170
H          -0.59370         2.11610         1.30680
H          -1.97340         2.58670         0.29860
H          -0.15490         1.67410        -1.06250
H          -1.61760         1.24530        -1.94620
H          -0.10930         0.37340        -2.24050
H          -2.15970        -2.12130        -0.28600
H          -3.04350        -0.87080        -1.13100
H          -1.62580        -1.09650        -3.12880
H          -0.31420        -3.43290        -1.64120
H          -0.19650        -3.14440        -3.38240
H           0.49890        -1.98170        -2.26710
H          -3.75330        -2.32600        -2.88240
H          -2.89960        -3.69390        -2.14430
H          -2.58730        -3.25300        -3.83280
H           1.02470         0.50550         2.67710
H           3.08640         1.74110         2.92180

