%NProcShared=1
%Mem=10GB

#p B3LYP/6-31G* opt freq

test

0  1
C           5.63810         2.65580         0.20430
O           5.23350         1.29260         0.18420
C           3.92650         1.03390         0.48820
C           3.56420        -0.31020         0.42460
C           2.25530        -0.71970         0.70970
C           1.26480         0.20870         1.04760
C          -0.15750        -0.18180         1.41220
O          -1.06090         0.91670         1.17150
C          -2.33990         0.45250         1.09360
O          -3.32240         1.16620         0.98510
C          -2.33480        -1.04760         1.19980
C          -3.46930        -1.72100         0.44400
C          -0.88360        -1.39810         0.78680
C          -0.49300        -2.71370         1.50220
C          -0.69740        -1.62070        -0.75120
C          -1.11980        -0.54280        -1.78210
C          -1.39460        -1.22620        -3.13180
C          -0.07160         0.54620        -2.00680
C           1.65700         1.55880         1.13780
C           2.96570         1.97010         0.85270
H           6.69470         2.69500        -0.07740
H           5.54590         3.07950         1.20980
H           5.07630         3.24610        -0.52730
H           4.31110        -1.05280         0.15280
H           2.04900        -1.78140         0.65490
H          -0.13340        -0.30240         2.50630
H          -2.47510        -1.26430         2.26890
H          -3.53380        -1.40790        -0.60040
H          -3.37310        -2.81040         0.47420
H          -4.43030        -1.46150         0.90290
H          -0.52570        -2.60510         2.59220
H           0.50950        -3.05430         1.23590
H          -1.18220        -3.52330         1.23610
H          -1.25880        -2.53530        -0.99260
H           0.34600        -1.89200        -0.95330
H          -2.05120        -0.05790        -1.48100
H          -0.49900        -1.73090        -3.51050
H          -1.71660        -0.49610        -3.88220
H          -2.19220        -1.97100        -3.03720
H          -0.32440         1.15660        -2.88130
H          -0.02200         1.23310        -1.16260
H           0.92260         0.12060        -2.17640
H           0.93340         2.32020         1.42830
H           3.19400         3.02770         0.92990

