
     RDKit          3D

 44 45  0  0  0  0  0  0  0  0999 V2000
    5.6381    2.6558    0.2043 C   0  0  0  0  0  0  0  0  0  0  0  0
    5.2335    1.2926    0.1842 O   0  0  0  0  0  0  0  0  0  0  0  0
    3.9265    1.0339    0.4882 C   0  0  0  0  0  0  0  0  0  0  0  0
    3.5642   -0.3102    0.4246 C   0  0  0  0  0  0  0  0  0  0  0  0
    2.2553   -0.7197    0.7097 C   0  0  0  0  0  0  0  0  0  0  0  0
    1.2648    0.2087    1.0476 C   0  0  0  0  0  0  0  0  0  0  0  0
   -0.1575   -0.1818    1.4122 C   0  0  0  0  0  0  0  0  0  0  0  0
   -1.0609    0.9167    1.1715 O   0  0  0  0  0  0  0  0  0  0  0  0
   -2.3399    0.4525    1.0936 C   0  0  0  0  0  0  0  0  0  0  0  0
   -3.3224    1.1662    0.9851 O   0  0  0  0  0  0  0  0  0  0  0  0
   -2.3348   -1.0476    1.1998 C   0  0  0  0  0  0  0  0  0  0  0  0
   -3.4693   -1.7210    0.4440 C   0  0  0  0  0  0  0  0  0  0  0  0
   -0.8836   -1.3981    0.7868 C   0  0  0  0  0  0  0  0  0  0  0  0
   -0.4930   -2.7137    1.5022 C   0  0  0  0  0  0  0  0  0  0  0  0
   -0.6974   -1.6207   -0.7512 C   0  0  0  0  0  0  0  0  0  0  0  0
   -1.1198   -0.5428   -1.7821 C   0  0  0  0  0  0  0  0  0  0  0  0
   -1.3946   -1.2262   -3.1318 C   0  0  0  0  0  0  0  0  0  0  0  0
   -0.0716    0.5462   -2.0068 C   0  0  0  0  0  0  0  0  0  0  0  0
    1.6570    1.5588    1.1378 C   0  0  0  0  0  0  0  0  0  0  0  0
    2.9657    1.9701    0.8527 C   0  0  0  0  0  0  0  0  0  0  0  0
    6.6947    2.6950   -0.0774 H   0  0  0  0  0  0  0  0  0  0  0  0
    5.5459    3.0795    1.2098 H   0  0  0  0  0  0  0  0  0  0  0  0
    5.0763    3.2461   -0.5273 H   0  0  0  0  0  0  0  0  0  0  0  0
    4.3111   -1.0528    0.1528 H   0  0  0  0  0  0  0  0  0  0  0  0
    2.0490   -1.7814    0.6549 H   0  0  0  0  0  0  0  0  0  0  0  0
   -0.1334   -0.3024    2.5063 H   0  0  0  0  0  0  0  0  0  0  0  0
   -2.4751   -1.2643    2.2689 H   0  0  0  0  0  0  0  0  0  0  0  0
   -3.5338   -1.4079   -0.6004 H   0  0  0  0  0  0  0  0  0  0  0  0
   -3.3731   -2.8104    0.4742 H   0  0  0  0  0  0  0  0  0  0  0  0
   -4.4303   -1.4615    0.9029 H   0  0  0  0  0  0  0  0  0  0  0  0
   -0.5257   -2.6051    2.5922 H   0  0  0  0  0  0  0  0  0  0  0  0
    0.5095   -3.0543    1.2359 H   0  0  0  0  0  0  0  0  0  0  0  0
   -1.1822   -3.5233    1.2361 H   0  0  0  0  0  0  0  0  0  0  0  0
   -1.2588   -2.5353   -0.9926 H   0  0  0  0  0  0  0  0  0  0  0  0
    0.3460   -1.8920   -0.9533 H   0  0  0  0  0  0  0  0  0  0  0  0
   -2.0512   -0.0579   -1.4810 H   0  0  0  0  0  0  0  0  0  0  0  0
   -0.4990   -1.7309   -3.5105 H   0  0  0  0  0  0  0  0  0  0  0  0
   -1.7166   -0.4961   -3.8822 H   0  0  0  0  0  0  0  0  0  0  0  0
   -2.1922   -1.9710   -3.0372 H   0  0  0  0  0  0  0  0  0  0  0  0
   -0.3244    1.1566   -2.8813 H   0  0  0  0  0  0  0  0  0  0  0  0
   -0.0220    1.2331   -1.1626 H   0  0  0  0  0  0  0  0  0  0  0  0
    0.9226    0.1206   -2.1764 H   0  0  0  0  0  0  0  0  0  0  0  0
    0.9334    2.3202    1.4283 H   0  0  0  0  0  0  0  0  0  0  0  0
    3.1940    3.0277    0.9299 H   0  0  0  0  0  0  0  0  0  0  0  0
  1  2  1  0
  2  3  1  0
  3  4  2  0
  4  5  1  0
  5  6  2  0
  6  7  1  0
  7  8  1  0
  8  9  1  0
  9 10  2  0
  9 11  1  0
 11 12  1  0
 11 13  1  0
 13 14  1  0
 13 15  1  0
 15 16  1  0
 16 17  1  0
 16 18  1  0
  6 19  1  0
 19 20  2  0
 20  3  1  0
 13  7  1  0
  1 21  1  0
  1 22  1  0
  1 23  1  0
  4 24  1  0
  5 25  1  0
  7 26  1  0
 11 27  1  0
 12 28  1  0
 12 29  1  0
 12 30  1  0
 14 31  1  0
 14 32  1  0
 14 33  1  0
 15 34  1  0
 15 35  1  0
 16 36  1  0
 17 37  1  0
 17 38  1  0
 17 39  1  0
 18 40  1  0
 18 41  1  0
 18 42  1  0
 19 43  1  0
 20 44  1  0
M  END
>  <energy_abs>  (154) 
49.349703407026254

>  <SMILES>  (154) 
COc1ccc(C2OC(=O)C(C)C2(C)CC(C)C)cc1

>  <cluster_no>  (154) 
154

>  <ccdc_id>  (154) 
33

>  <initial_conformation_id>  (154) 
138

>  <minimize_method>  (154) 
MMFF

$$$$
