
     RDKit          3D

 44 45  0  0  0  0  0  0  0  0999 V2000
    5.7239    2.4536    1.4595 C   0  0  0  0  0  0  0  0  0  0  0  0
    5.2314    1.5020    0.5244 O   0  0  0  0  0  0  0  0  0  0  0  0
    3.9367    1.0937    0.6846 C   0  0  0  0  0  0  0  0  0  0  0  0
    3.5033    0.1453   -0.2412 C   0  0  0  0  0  0  0  0  0  0  0  0
    2.1999   -0.3597   -0.1940 C   0  0  0  0  0  0  0  0  0  0  0  0
    1.2940    0.0768    0.7810 C   0  0  0  0  0  0  0  0  0  0  0  0
   -0.1248   -0.4707    0.8189 C   0  0  0  0  0  0  0  0  0  0  0  0
   -0.6923   -0.2459    2.1227 O   0  0  0  0  0  0  0  0  0  0  0  0
   -2.0300   -0.0305    2.0279 C   0  0  0  0  0  0  0  0  0  0  0  0
   -2.7584    0.1536    2.9900 O   0  0  0  0  0  0  0  0  0  0  0  0
   -2.4804   -0.0837    0.5891 C   0  0  0  0  0  0  0  0  0  0  0  0
   -3.2597   -1.3736    0.4037 C   0  0  0  0  0  0  0  0  0  0  0  0
   -1.1497    0.1321   -0.1700 C   0  0  0  0  0  0  0  0  0  0  0  0
   -0.9516    1.6864   -0.2505 C   0  0  0  0  0  0  0  0  0  0  0  0
   -1.0573   -0.3607   -1.6475 C   0  0  0  0  0  0  0  0  0  0  0  0
   -1.3486   -1.8040   -2.1262 C   0  0  0  0  0  0  0  0  0  0  0  0
   -0.4909   -2.9079   -1.5181 C   0  0  0  0  0  0  0  0  0  0  0  0
   -1.1799   -1.8512   -3.6564 C   0  0  0  0  0  0  0  0  0  0  0  0
    1.7444    1.0296    1.7107 C   0  0  0  0  0  0  0  0  0  0  0  0
    3.0505    1.5343    1.6636 C   0  0  0  0  0  0  0  0  0  0  0  0
    5.1660    3.3937    1.3967 H   0  0  0  0  0  0  0  0  0  0  0  0
    6.7657    2.6673    1.2016 H   0  0  0  0  0  0  0  0  0  0  0  0
    5.7089    2.0513    2.4779 H   0  0  0  0  0  0  0  0  0  0  0  0
    4.1892   -0.2077   -1.0078 H   0  0  0  0  0  0  0  0  0  0  0  0
    1.9115   -1.0997   -0.9327 H   0  0  0  0  0  0  0  0  0  0  0  0
   -0.0550   -1.5556    0.7326 H   0  0  0  0  0  0  0  0  0  0  0  0
   -3.1604    0.7598    0.4176 H   0  0  0  0  0  0  0  0  0  0  0  0
   -2.6244   -2.2583    0.4918 H   0  0  0  0  0  0  0  0  0  0  0  0
   -3.7767   -1.3818   -0.5587 H   0  0  0  0  0  0  0  0  0  0  0  0
   -4.0373   -1.4704    1.1712 H   0  0  0  0  0  0  0  0  0  0  0  0
   -0.9443    2.1569    0.7391 H   0  0  0  0  0  0  0  0  0  0  0  0
   -0.0145    1.9492   -0.7538 H   0  0  0  0  0  0  0  0  0  0  0  0
   -1.7628    2.1527   -0.8228 H   0  0  0  0  0  0  0  0  0  0  0  0
   -1.7464    0.2771   -2.2221 H   0  0  0  0  0  0  0  0  0  0  0  0
   -0.0583   -0.0952   -2.0201 H   0  0  0  0  0  0  0  0  0  0  0  0
   -2.3955   -2.0497   -1.9420 H   0  0  0  0  0  0  0  0  0  0  0  0
   -0.7196   -3.0696   -0.4642 H   0  0  0  0  0  0  0  0  0  0  0  0
   -0.6841   -3.8640   -2.0188 H   0  0  0  0  0  0  0  0  0  0  0  0
    0.5753   -2.6977   -1.6260 H   0  0  0  0  0  0  0  0  0  0  0  0
   -0.1450   -1.6419   -3.9485 H   0  0  0  0  0  0  0  0  0  0  0  0
   -1.4497   -2.8377   -4.0491 H   0  0  0  0  0  0  0  0  0  0  0  0
   -1.8276   -1.1151   -4.1446 H   0  0  0  0  0  0  0  0  0  0  0  0
    1.0796    1.3958    2.4917 H   0  0  0  0  0  0  0  0  0  0  0  0
    3.3380    2.2681    2.4090 H   0  0  0  0  0  0  0  0  0  0  0  0
  1  2  1  0
  2  3  1  0
  3  4  2  0
  4  5  1  0
  5  6  2  0
  6  7  1  0
  7  8  1  0
  8  9  1  0
  9 10  2  0
  9 11  1  0
 11 12  1  0
 11 13  1  0
 13 14  1  0
 13 15  1  0
 15 16  1  0
 16 17  1  0
 16 18  1  0
  6 19  1  0
 19 20  2  0
 20  3  1  0
 13  7  1  0
  1 21  1  0
  1 22  1  0
  1 23  1  0
  4 24  1  0
  5 25  1  0
  7 26  1  0
 11 27  1  0
 12 28  1  0
 12 29  1  0
 12 30  1  0
 14 31  1  0
 14 32  1  0
 14 33  1  0
 15 34  1  0
 15 35  1  0
 16 36  1  0
 17 37  1  0
 17 38  1  0
 17 39  1  0
 18 40  1  0
 18 41  1  0
 18 42  1  0
 19 43  1  0
 20 44  1  0
M  END
>  <energy_abs>  (155) 
51.60246768840552

>  <SMILES>  (155) 
COc1ccc(C2OC(=O)C(C)C2(C)CC(C)C)cc1

>  <cluster_no>  (155) 
155

>  <ccdc_id>  (155) 
33

>  <initial_conformation_id>  (155) 
137

>  <minimize_method>  (155) 
MMFF

$$$$
