%NProcShared=1
%Mem=10GB

#p B3LYP/6-31G* opt freq

test

0  1
C           5.89790         2.43890         1.13630
O           4.76570         2.20020         1.96240
C           3.73410         1.49410         1.40920
C           3.67960         1.00240         0.10730
C           2.55410         0.29340        -0.33060
C           1.45750         0.06800         0.51950
C           0.25480        -0.70160        -0.00460
O          -0.41860        -1.34980         1.08210
C          -1.62880        -0.77800         1.30960
O          -2.35920        -1.08930         2.23750
C          -1.92910         0.28860         0.29200
C          -1.95820         1.64120         0.99950
C          -0.84320         0.06720        -0.77640
C          -0.34280         1.39610        -1.39490
C          -1.37960        -0.76330        -2.00650
C          -2.02310        -2.17250        -1.94640
C          -1.10910        -3.29560        -1.46630
C          -3.38100        -2.24140        -1.25310
C           1.53240         0.55630         1.83060
C           2.65700         1.26440         2.26550
H           6.62840         3.00250         1.72470
H           6.36990         1.49890         0.83150
H           5.63030         3.04770         0.26640
H           4.49430         1.14940        -0.59370
H           2.54210        -0.08390        -1.35170
H           0.66710        -1.50110        -0.62880
H          -2.92270         0.11130        -0.12730
H          -2.22010         2.44500         0.30430
H          -2.71270         1.64200         1.79470
H          -1.00210         1.88640         1.46960
H           0.42310         1.21580        -2.15770
H          -1.16540         1.93190        -1.88350
H           0.08720         2.07710        -0.65420
H          -2.11350        -0.12530        -2.52210
H          -0.54050        -0.85220        -2.71340
H          -2.23360        -2.41050        -3.00050
H          -0.13180        -3.24650        -1.95670
H          -1.54670        -4.26970        -1.71390
H          -0.96530        -3.28150        -0.38450
H          -3.29450        -2.21800        -0.16550
H          -3.88770        -3.17920        -1.50900
H          -4.03180        -1.42260        -1.57550
H           0.72600         0.38720         2.54080
H           2.69460         1.63500         3.28740

