
     RDKit          3D

 44 45  0  0  0  0  0  0  0  0999 V2000
    5.8979    2.4389    1.1363 C   0  0  0  0  0  0  0  0  0  0  0  0
    4.7657    2.2002    1.9624 O   0  0  0  0  0  0  0  0  0  0  0  0
    3.7341    1.4941    1.4092 C   0  0  0  0  0  0  0  0  0  0  0  0
    3.6796    1.0024    0.1073 C   0  0  0  0  0  0  0  0  0  0  0  0
    2.5541    0.2934   -0.3306 C   0  0  0  0  0  0  0  0  0  0  0  0
    1.4575    0.0680    0.5195 C   0  0  0  0  0  0  0  0  0  0  0  0
    0.2548   -0.7016   -0.0046 C   0  0  0  0  0  0  0  0  0  0  0  0
   -0.4186   -1.3498    1.0821 O   0  0  0  0  0  0  0  0  0  0  0  0
   -1.6288   -0.7780    1.3096 C   0  0  0  0  0  0  0  0  0  0  0  0
   -2.3592   -1.0893    2.2375 O   0  0  0  0  0  0  0  0  0  0  0  0
   -1.9291    0.2886    0.2920 C   0  0  0  0  0  0  0  0  0  0  0  0
   -1.9582    1.6412    0.9995 C   0  0  0  0  0  0  0  0  0  0  0  0
   -0.8432    0.0672   -0.7764 C   0  0  0  0  0  0  0  0  0  0  0  0
   -0.3428    1.3961   -1.3949 C   0  0  0  0  0  0  0  0  0  0  0  0
   -1.3796   -0.7633   -2.0065 C   0  0  0  0  0  0  0  0  0  0  0  0
   -2.0231   -2.1725   -1.9464 C   0  0  0  0  0  0  0  0  0  0  0  0
   -1.1091   -3.2956   -1.4663 C   0  0  0  0  0  0  0  0  0  0  0  0
   -3.3810   -2.2414   -1.2531 C   0  0  0  0  0  0  0  0  0  0  0  0
    1.5324    0.5563    1.8306 C   0  0  0  0  0  0  0  0  0  0  0  0
    2.6570    1.2644    2.2655 C   0  0  0  0  0  0  0  0  0  0  0  0
    6.6284    3.0025    1.7247 H   0  0  0  0  0  0  0  0  0  0  0  0
    6.3699    1.4989    0.8315 H   0  0  0  0  0  0  0  0  0  0  0  0
    5.6303    3.0477    0.2664 H   0  0  0  0  0  0  0  0  0  0  0  0
    4.4943    1.1494   -0.5937 H   0  0  0  0  0  0  0  0  0  0  0  0
    2.5421   -0.0839   -1.3517 H   0  0  0  0  0  0  0  0  0  0  0  0
    0.6671   -1.5011   -0.6288 H   0  0  0  0  0  0  0  0  0  0  0  0
   -2.9227    0.1113   -0.1273 H   0  0  0  0  0  0  0  0  0  0  0  0
   -2.2201    2.4450    0.3043 H   0  0  0  0  0  0  0  0  0  0  0  0
   -2.7127    1.6420    1.7947 H   0  0  0  0  0  0  0  0  0  0  0  0
   -1.0021    1.8864    1.4696 H   0  0  0  0  0  0  0  0  0  0  0  0
    0.4231    1.2158   -2.1577 H   0  0  0  0  0  0  0  0  0  0  0  0
   -1.1654    1.9319   -1.8835 H   0  0  0  0  0  0  0  0  0  0  0  0
    0.0872    2.0771   -0.6542 H   0  0  0  0  0  0  0  0  0  0  0  0
   -2.1135   -0.1253   -2.5221 H   0  0  0  0  0  0  0  0  0  0  0  0
   -0.5405   -0.8522   -2.7134 H   0  0  0  0  0  0  0  0  0  0  0  0
   -2.2336   -2.4105   -3.0005 H   0  0  0  0  0  0  0  0  0  0  0  0
   -0.1318   -3.2465   -1.9567 H   0  0  0  0  0  0  0  0  0  0  0  0
   -1.5467   -4.2697   -1.7139 H   0  0  0  0  0  0  0  0  0  0  0  0
   -0.9653   -3.2815   -0.3845 H   0  0  0  0  0  0  0  0  0  0  0  0
   -3.2945   -2.2180   -0.1655 H   0  0  0  0  0  0  0  0  0  0  0  0
   -3.8877   -3.1792   -1.5090 H   0  0  0  0  0  0  0  0  0  0  0  0
   -4.0318   -1.4226   -1.5755 H   0  0  0  0  0  0  0  0  0  0  0  0
    0.7260    0.3872    2.5408 H   0  0  0  0  0  0  0  0  0  0  0  0
    2.6946    1.6350    3.2874 H   0  0  0  0  0  0  0  0  0  0  0  0
  1  2  1  0
  2  3  1  0
  3  4  2  0
  4  5  1  0
  5  6  2  0
  6  7  1  0
  7  8  1  0
  8  9  1  0
  9 10  2  0
  9 11  1  0
 11 12  1  0
 11 13  1  0
 13 14  1  0
 13 15  1  0
 15 16  1  0
 16 17  1  0
 16 18  1  0
  6 19  1  0
 19 20  2  0
 20  3  1  0
 13  7  1  0
  1 21  1  0
  1 22  1  0
  1 23  1  0
  4 24  1  0
  5 25  1  0
  7 26  1  0
 11 27  1  0
 12 28  1  0
 12 29  1  0
 12 30  1  0
 14 31  1  0
 14 32  1  0
 14 33  1  0
 15 34  1  0
 15 35  1  0
 16 36  1  0
 17 37  1  0
 17 38  1  0
 17 39  1  0
 18 40  1  0
 18 41  1  0
 18 42  1  0
 19 43  1  0
 20 44  1  0
M  END
>  <energy_abs>  (156) 
52.60629537781323

>  <SMILES>  (156) 
COc1ccc(C2OC(=O)C(C)C2(C)CC(C)C)cc1

>  <cluster_no>  (156) 
156

>  <ccdc_id>  (156) 
33

>  <initial_conformation_id>  (156) 
136

>  <minimize_method>  (156) 
MMFF

$$$$
