#Put Keywords Here, check Charge and Multiplicity.

 

0  1
C           6.03960         1.92970         0.74570
O           4.84770         2.28050         1.43690
C           3.74110         1.51720         1.18870
C           2.60430         1.88310         1.90940
C           1.40010         1.18930         1.75280
C           1.30550         0.11260         0.86080
C           0.01730        -0.66860         0.64030
O          -0.81710        -0.61730         1.81190
C          -1.84120         0.26490         1.61540
O          -2.67440         0.54120         2.46210
C          -1.74560         0.85870         0.23270
C          -3.10610         1.20700        -0.35400
C          -0.91140        -0.21450        -0.51180
C          -0.20590         0.44250        -1.71050
C          -1.84330        -1.38290        -1.00030
C          -1.24730        -2.76890        -1.34560
C          -0.14950        -2.74730        -2.40300
C          -2.37880        -3.69520        -1.81500
C           2.46030        -0.25420         0.14870
C           3.66510         0.44180         0.30740
H           5.91380         2.03680        -0.33680
H           6.36540         0.91770         1.00820
H           6.82490         2.62400         1.05970
H           2.65630         2.71520         2.60810
H           0.54870         1.50370         2.35180
H           0.31030        -1.71610         0.52970
H          -1.17000         1.78830         0.33320
H          -3.81830         0.37900        -0.28170
H          -3.54850         2.04520         0.19620
H          -3.02030         1.50650        -1.40280
H           0.56940        -0.19040        -2.14340
H          -0.92090         0.67990        -2.50610
H           0.27510         1.38670        -1.43050
H          -2.59520        -1.57250        -0.22160
H          -2.41160        -1.02900        -1.87200
H          -0.83670        -3.21970        -0.43490
H           0.77060        -2.31350        -2.00440
H          -0.45680        -2.18120        -3.28810
H           0.10200        -3.76350        -2.72690
H          -2.83400        -3.32840        -2.74140
H          -3.16440        -3.76830        -1.05530
H          -2.00310        -4.70740        -1.99980
H           2.43440        -1.09410        -0.54310
H           4.52280         0.11510        -0.27090

