
     RDKit          3D

 44 45  0  0  0  0  0  0  0  0999 V2000
    6.0396    1.9297    0.7457 C   0  0  0  0  0  0  0  0  0  0  0  0
    4.8477    2.2805    1.4369 O   0  0  0  0  0  0  0  0  0  0  0  0
    3.7411    1.5172    1.1887 C   0  0  0  0  0  0  0  0  0  0  0  0
    2.6043    1.8831    1.9094 C   0  0  0  0  0  0  0  0  0  0  0  0
    1.4001    1.1893    1.7528 C   0  0  0  0  0  0  0  0  0  0  0  0
    1.3055    0.1126    0.8608 C   0  0  0  0  0  0  0  0  0  0  0  0
    0.0173   -0.6686    0.6403 C   0  0  0  0  0  0  0  0  0  0  0  0
   -0.8171   -0.6173    1.8119 O   0  0  0  0  0  0  0  0  0  0  0  0
   -1.8412    0.2649    1.6154 C   0  0  0  0  0  0  0  0  0  0  0  0
   -2.6744    0.5412    2.4621 O   0  0  0  0  0  0  0  0  0  0  0  0
   -1.7456    0.8587    0.2327 C   0  0  0  0  0  0  0  0  0  0  0  0
   -3.1061    1.2070   -0.3540 C   0  0  0  0  0  0  0  0  0  0  0  0
   -0.9114   -0.2145   -0.5118 C   0  0  0  0  0  0  0  0  0  0  0  0
   -0.2059    0.4425   -1.7105 C   0  0  0  0  0  0  0  0  0  0  0  0
   -1.8433   -1.3829   -1.0003 C   0  0  0  0  0  0  0  0  0  0  0  0
   -1.2473   -2.7689   -1.3456 C   0  0  0  0  0  0  0  0  0  0  0  0
   -0.1495   -2.7473   -2.4030 C   0  0  0  0  0  0  0  0  0  0  0  0
   -2.3788   -3.6952   -1.8150 C   0  0  0  0  0  0  0  0  0  0  0  0
    2.4603   -0.2542    0.1487 C   0  0  0  0  0  0  0  0  0  0  0  0
    3.6651    0.4418    0.3074 C   0  0  0  0  0  0  0  0  0  0  0  0
    5.9138    2.0368   -0.3368 H   0  0  0  0  0  0  0  0  0  0  0  0
    6.3654    0.9177    1.0082 H   0  0  0  0  0  0  0  0  0  0  0  0
    6.8249    2.6240    1.0597 H   0  0  0  0  0  0  0  0  0  0  0  0
    2.6563    2.7152    2.6081 H   0  0  0  0  0  0  0  0  0  0  0  0
    0.5487    1.5037    2.3518 H   0  0  0  0  0  0  0  0  0  0  0  0
    0.3103   -1.7161    0.5297 H   0  0  0  0  0  0  0  0  0  0  0  0
   -1.1700    1.7883    0.3332 H   0  0  0  0  0  0  0  0  0  0  0  0
   -3.8183    0.3790   -0.2817 H   0  0  0  0  0  0  0  0  0  0  0  0
   -3.5485    2.0452    0.1962 H   0  0  0  0  0  0  0  0  0  0  0  0
   -3.0203    1.5065   -1.4028 H   0  0  0  0  0  0  0  0  0  0  0  0
    0.5694   -0.1904   -2.1434 H   0  0  0  0  0  0  0  0  0  0  0  0
   -0.9209    0.6799   -2.5061 H   0  0  0  0  0  0  0  0  0  0  0  0
    0.2751    1.3867   -1.4305 H   0  0  0  0  0  0  0  0  0  0  0  0
   -2.5952   -1.5725   -0.2216 H   0  0  0  0  0  0  0  0  0  0  0  0
   -2.4116   -1.0290   -1.8720 H   0  0  0  0  0  0  0  0  0  0  0  0
   -0.8367   -3.2197   -0.4349 H   0  0  0  0  0  0  0  0  0  0  0  0
    0.7706   -2.3135   -2.0044 H   0  0  0  0  0  0  0  0  0  0  0  0
   -0.4568   -2.1812   -3.2881 H   0  0  0  0  0  0  0  0  0  0  0  0
    0.1020   -3.7635   -2.7269 H   0  0  0  0  0  0  0  0  0  0  0  0
   -2.8340   -3.3284   -2.7414 H   0  0  0  0  0  0  0  0  0  0  0  0
   -3.1644   -3.7683   -1.0553 H   0  0  0  0  0  0  0  0  0  0  0  0
   -2.0031   -4.7074   -1.9998 H   0  0  0  0  0  0  0  0  0  0  0  0
    2.4344   -1.0941   -0.5431 H   0  0  0  0  0  0  0  0  0  0  0  0
    4.5228    0.1151   -0.2709 H   0  0  0  0  0  0  0  0  0  0  0  0
  1  2  1  0
  2  3  1  0
  3  4  2  0
  4  5  1  0
  5  6  2  0
  6  7  1  0
  7  8  1  0
  8  9  1  0
  9 10  2  0
  9 11  1  0
 11 12  1  0
 11 13  1  0
 13 14  1  0
 13 15  1  0
 15 16  1  0
 16 17  1  0
 16 18  1  0
  6 19  1  0
 19 20  2  0
 20  3  1  0
 13  7  1  0
  1 21  1  0
  1 22  1  0
  1 23  1  0
  4 24  1  0
  5 25  1  0
  7 26  1  0
 11 27  1  0
 12 28  1  0
 12 29  1  0
 12 30  1  0
 14 31  1  0
 14 32  1  0
 14 33  1  0
 15 34  1  0
 15 35  1  0
 16 36  1  0
 17 37  1  0
 17 38  1  0
 17 39  1  0
 18 40  1  0
 18 41  1  0
 18 42  1  0
 19 43  1  0
 20 44  1  0
M  END
>  <energy_abs>  (157) 
46.09724053361819

>  <SMILES>  (157) 
COc1ccc(C2OC(=O)C(C)C2(C)CC(C)C)cc1

>  <cluster_no>  (157) 
157

>  <ccdc_id>  (157) 
33

>  <initial_conformation_id>  (157) 
134

>  <minimize_method>  (157) 
MMFF

$$$$
