%NProcShared=1
%Mem=10GB

#p B3LYP/6-31G* opt freq

test

0  1
C           5.93060         0.72700         0.81860
O           4.83380         0.72250         1.72330
C           3.58200         0.76580         1.17700
C           3.27740         0.81710        -0.17940
C           1.94120         0.85600        -0.60080
C           0.87740         0.82200         0.31490
C          -0.55540         0.86510        -0.19330
O          -1.30100         1.77770         0.63270
C          -2.14140         1.09590         1.45640
O          -2.78180         1.61790         2.35520
C          -2.16850        -0.37080         1.10910
C          -1.61890        -1.21200         2.25600
C          -1.42800        -0.42020        -0.25450
C          -2.52040        -0.20770        -1.34370
C          -0.69200        -1.77160        -0.49240
C          -0.44110        -2.26440        -1.93850
C           0.50870        -1.39060        -2.74710
C           0.11370        -3.69560        -1.89890
C           1.20530         0.81250         1.67750
C           2.53870         0.77280         2.10040
H           5.95330         1.65060         0.23060
H           6.85110         0.68560         1.40880
H           5.91110        -0.15490         0.16980
H           4.05180         0.83870        -0.93880
H           1.74600         0.93250        -1.66800
H          -0.52890         1.33150        -1.18640
H          -3.22290        -0.64550         0.97420
H          -1.90490        -2.26190         2.13360
H          -2.02080        -0.87780         3.21880
H          -0.53080        -1.17800         2.32600
H          -2.08560        -0.06150        -2.33690
H          -3.13470         0.67720        -1.13900
H          -3.19670        -1.06900        -1.39180
H          -1.31340        -2.55380        -0.03470
H           0.25260        -1.79220         0.06390
H          -1.39790        -2.31520        -2.47090
H           0.60940        -1.77750        -3.76750
H           0.14550        -0.36430        -2.82990
H           1.50870        -1.38100        -2.30400
H           1.07530        -3.73470        -1.37580
H           0.26240        -4.08430        -2.91210
H          -0.58010        -4.36930        -1.38490
H           0.43680         0.86270         2.44410
H           2.76320         0.76110         3.16470

