
     RDKit          3D

 44 45  0  0  0  0  0  0  0  0999 V2000
    5.9306    0.7270    0.8186 C   0  0  0  0  0  0  0  0  0  0  0  0
    4.8338    0.7225    1.7233 O   0  0  0  0  0  0  0  0  0  0  0  0
    3.5820    0.7658    1.1770 C   0  0  0  0  0  0  0  0  0  0  0  0
    3.2774    0.8171   -0.1794 C   0  0  0  0  0  0  0  0  0  0  0  0
    1.9412    0.8560   -0.6008 C   0  0  0  0  0  0  0  0  0  0  0  0
    0.8774    0.8220    0.3149 C   0  0  0  0  0  0  0  0  0  0  0  0
   -0.5554    0.8651   -0.1933 C   0  0  0  0  0  0  0  0  0  0  0  0
   -1.3010    1.7777    0.6327 O   0  0  0  0  0  0  0  0  0  0  0  0
   -2.1414    1.0959    1.4564 C   0  0  0  0  0  0  0  0  0  0  0  0
   -2.7818    1.6179    2.3552 O   0  0  0  0  0  0  0  0  0  0  0  0
   -2.1685   -0.3708    1.1091 C   0  0  0  0  0  0  0  0  0  0  0  0
   -1.6189   -1.2120    2.2560 C   0  0  0  0  0  0  0  0  0  0  0  0
   -1.4280   -0.4202   -0.2545 C   0  0  0  0  0  0  0  0  0  0  0  0
   -2.5204   -0.2077   -1.3437 C   0  0  0  0  0  0  0  0  0  0  0  0
   -0.6920   -1.7716   -0.4924 C   0  0  0  0  0  0  0  0  0  0  0  0
   -0.4411   -2.2644   -1.9385 C   0  0  0  0  0  0  0  0  0  0  0  0
    0.5087   -1.3906   -2.7471 C   0  0  0  0  0  0  0  0  0  0  0  0
    0.1137   -3.6956   -1.8989 C   0  0  0  0  0  0  0  0  0  0  0  0
    1.2053    0.8125    1.6775 C   0  0  0  0  0  0  0  0  0  0  0  0
    2.5387    0.7728    2.1004 C   0  0  0  0  0  0  0  0  0  0  0  0
    5.9533    1.6506    0.2306 H   0  0  0  0  0  0  0  0  0  0  0  0
    6.8511    0.6856    1.4088 H   0  0  0  0  0  0  0  0  0  0  0  0
    5.9111   -0.1549    0.1698 H   0  0  0  0  0  0  0  0  0  0  0  0
    4.0518    0.8387   -0.9388 H   0  0  0  0  0  0  0  0  0  0  0  0
    1.7460    0.9325   -1.6680 H   0  0  0  0  0  0  0  0  0  0  0  0
   -0.5289    1.3315   -1.1864 H   0  0  0  0  0  0  0  0  0  0  0  0
   -3.2229   -0.6455    0.9742 H   0  0  0  0  0  0  0  0  0  0  0  0
   -1.9049   -2.2619    2.1336 H   0  0  0  0  0  0  0  0  0  0  0  0
   -2.0208   -0.8778    3.2188 H   0  0  0  0  0  0  0  0  0  0  0  0
   -0.5308   -1.1780    2.3260 H   0  0  0  0  0  0  0  0  0  0  0  0
   -2.0856   -0.0615   -2.3369 H   0  0  0  0  0  0  0  0  0  0  0  0
   -3.1347    0.6772   -1.1390 H   0  0  0  0  0  0  0  0  0  0  0  0
   -3.1967   -1.0690   -1.3918 H   0  0  0  0  0  0  0  0  0  0  0  0
   -1.3134   -2.5538   -0.0347 H   0  0  0  0  0  0  0  0  0  0  0  0
    0.2526   -1.7922    0.0639 H   0  0  0  0  0  0  0  0  0  0  0  0
   -1.3979   -2.3152   -2.4709 H   0  0  0  0  0  0  0  0  0  0  0  0
    0.6094   -1.7775   -3.7675 H   0  0  0  0  0  0  0  0  0  0  0  0
    0.1455   -0.3643   -2.8299 H   0  0  0  0  0  0  0  0  0  0  0  0
    1.5087   -1.3810   -2.3040 H   0  0  0  0  0  0  0  0  0  0  0  0
    1.0753   -3.7347   -1.3758 H   0  0  0  0  0  0  0  0  0  0  0  0
    0.2624   -4.0843   -2.9121 H   0  0  0  0  0  0  0  0  0  0  0  0
   -0.5801   -4.3693   -1.3849 H   0  0  0  0  0  0  0  0  0  0  0  0
    0.4368    0.8627    2.4441 H   0  0  0  0  0  0  0  0  0  0  0  0
    2.7632    0.7611    3.1647 H   0  0  0  0  0  0  0  0  0  0  0  0
  1  2  1  0
  2  3  1  0
  3  4  2  0
  4  5  1  0
  5  6  2  0
  6  7  1  0
  7  8  1  0
  8  9  1  0
  9 10  2  0
  9 11  1  0
 11 12  1  0
 11 13  1  0
 13 14  1  0
 13 15  1  0
 15 16  1  0
 16 17  1  0
 16 18  1  0
  6 19  1  0
 19 20  2  0
 20  3  1  0
 13  7  1  0
  1 21  1  0
  1 22  1  0
  1 23  1  0
  4 24  1  0
  5 25  1  0
  7 26  1  0
 11 27  1  0
 12 28  1  0
 12 29  1  0
 12 30  1  0
 14 31  1  0
 14 32  1  0
 14 33  1  0
 15 34  1  0
 15 35  1  0
 16 36  1  0
 17 37  1  0
 17 38  1  0
 17 39  1  0
 18 40  1  0
 18 41  1  0
 18 42  1  0
 19 43  1  0
 20 44  1  0
M  END
>  <energy_abs>  (158) 
50.31135311979265

>  <SMILES>  (158) 
COc1ccc(C2OC(=O)C(C)C2(C)CC(C)C)cc1

>  <cluster_no>  (158) 
158

>  <ccdc_id>  (158) 
33

>  <initial_conformation_id>  (158) 
133

>  <minimize_method>  (158) 
MMFF

$$$$
