
     RDKit          3D

 44 45  0  0  0  0  0  0  0  0999 V2000
    6.1523    1.4640    0.2753 C   0  0  0  0  0  0  0  0  0  0  0  0
    5.0633    2.0186    1.0018 O   0  0  0  0  0  0  0  0  0  0  0  0
    3.8668    1.3621    0.9203 C   0  0  0  0  0  0  0  0  0  0  0  0
    3.6101    0.2101    0.1800 C   0  0  0  0  0  0  0  0  0  0  0  0
    2.3309   -0.3608    0.1842 C   0  0  0  0  0  0  0  0  0  0  0  0
    1.2839    0.2098    0.9239 C   0  0  0  0  0  0  0  0  0  0  0  0
   -0.0944   -0.4231    0.9030 C   0  0  0  0  0  0  0  0  0  0  0  0
   -0.8210   -0.0928    2.1013 O   0  0  0  0  0  0  0  0  0  0  0  0
   -2.1600   -0.1214    1.8428 C   0  0  0  0  0  0  0  0  0  0  0  0
   -3.0221    0.0576    2.6868 O   0  0  0  0  0  0  0  0  0  0  0  0
   -2.3928   -0.4420    0.3868 C   0  0  0  0  0  0  0  0  0  0  0  0
   -3.6420    0.2245   -0.1667 C   0  0  0  0  0  0  0  0  0  0  0  0
   -1.0505   -0.0261   -0.2477 C   0  0  0  0  0  0  0  0  0  0  0  0
   -1.0015    1.5115   -0.4868 C   0  0  0  0  0  0  0  0  0  0  0  0
   -0.7566   -0.7014   -1.6191 C   0  0  0  0  0  0  0  0  0  0  0  0
   -1.1882   -2.1623   -1.8880 C   0  0  0  0  0  0  0  0  0  0  0  0
   -0.5080   -3.2030   -1.0030 C   0  0  0  0  0  0  0  0  0  0  0  0
   -0.9025   -2.5026   -3.3587 C   0  0  0  0  0  0  0  0  0  0  0  0
    1.5579    1.3641    1.6711 C   0  0  0  0  0  0  0  0  0  0  0  0
    2.8347    1.9327    1.6652 C   0  0  0  0  0  0  0  0  0  0  0  0
    6.3930    0.4569    0.6317 H   0  0  0  0  0  0  0  0  0  0  0  0
    5.9502    1.4653   -0.8009 H   0  0  0  0  0  0  0  0  0  0  0  0
    7.0277    2.0968    0.4501 H   0  0  0  0  0  0  0  0  0  0  0  0
    4.3815   -0.2728   -0.4104 H   0  0  0  0  0  0  0  0  0  0  0  0
    2.1659   -1.2650   -0.3971 H   0  0  0  0  0  0  0  0  0  0  0  0
    0.0565   -1.5045    0.9562 H   0  0  0  0  0  0  0  0  0  0  0  0
   -2.5291   -1.5282    0.3491 H   0  0  0  0  0  0  0  0  0  0  0  0
   -3.6777    1.2942    0.0641 H   0  0  0  0  0  0  0  0  0  0  0  0
   -4.5373   -0.2208    0.2818 H   0  0  0  0  0  0  0  0  0  0  0  0
   -3.7120    0.0939   -1.2509 H   0  0  0  0  0  0  0  0  0  0  0  0
   -1.7481    1.8271   -1.2242 H   0  0  0  0  0  0  0  0  0  0  0  0
   -1.1888    2.0799    0.4306 H   0  0  0  0  0  0  0  0  0  0  0  0
   -0.0277    1.8212   -0.8824 H   0  0  0  0  0  0  0  0  0  0  0  0
    0.3119   -0.5996   -1.8457 H   0  0  0  0  0  0  0  0  0  0  0  0
   -1.2639   -0.1001   -2.3881 H   0  0  0  0  0  0  0  0  0  0  0  0
   -2.2728   -2.2467   -1.7523 H   0  0  0  0  0  0  0  0  0  0  0  0
    0.5788   -3.0750   -0.9973 H   0  0  0  0  0  0  0  0  0  0  0  0
   -0.7216   -4.2170   -1.3595 H   0  0  0  0  0  0  0  0  0  0  0  0
   -0.8745   -3.1560    0.0250 H   0  0  0  0  0  0  0  0  0  0  0  0
    0.1699   -2.4519   -3.5766 H   0  0  0  0  0  0  0  0  0  0  0  0
   -1.4194   -1.8074   -4.0287 H   0  0  0  0  0  0  0  0  0  0  0  0
   -1.2506   -3.5127   -3.6005 H   0  0  0  0  0  0  0  0  0  0  0  0
    0.7804    1.8358    2.2692 H   0  0  0  0  0  0  0  0  0  0  0  0
    3.0254    2.8287    2.2512 H   0  0  0  0  0  0  0  0  0  0  0  0
  1  2  1  0
  2  3  1  0
  3  4  2  0
  4  5  1  0
  5  6  2  0
  6  7  1  0
  7  8  1  0
  8  9  1  0
  9 10  2  0
  9 11  1  0
 11 12  1  0
 11 13  1  0
 13 14  1  0
 13 15  1  0
 15 16  1  0
 16 17  1  0
 16 18  1  0
  6 19  1  0
 19 20  2  0
 20  3  1  0
 13  7  1  0
  1 21  1  0
  1 22  1  0
  1 23  1  0
  4 24  1  0
  5 25  1  0
  7 26  1  0
 11 27  1  0
 12 28  1  0
 12 29  1  0
 12 30  1  0
 14 31  1  0
 14 32  1  0
 14 33  1  0
 15 34  1  0
 15 35  1  0
 16 36  1  0
 17 37  1  0
 17 38  1  0
 17 39  1  0
 18 40  1  0
 18 41  1  0
 18 42  1  0
 19 43  1  0
 20 44  1  0
M  END
>  <energy_abs>  (159) 
44.90791590165775

>  <SMILES>  (159) 
COc1ccc(C2OC(=O)C(C)C2(C)CC(C)C)cc1

>  <cluster_no>  (159) 
159

>  <ccdc_id>  (159) 
33

>  <initial_conformation_id>  (159) 
131

>  <minimize_method>  (159) 
MMFF

$$$$
