%NProcShared=1
%Mem=10GB

#p B3LYP/6-31G* opt freq

test

0  1
C           6.15230         1.46400         0.27530
O           5.06330         2.01860         1.00180
C           3.86680         1.36210         0.92030
C           3.61010         0.21010         0.18000
C           2.33090        -0.36080         0.18420
C           1.28390         0.20980         0.92390
C          -0.09440        -0.42310         0.90300
O          -0.82100        -0.09280         2.10130
C          -2.16000        -0.12140         1.84280
O          -3.02210         0.05760         2.68680
C          -2.39280        -0.44200         0.38680
C          -3.64200         0.22450        -0.16670
C          -1.05050        -0.02610        -0.24770
C          -1.00150         1.51150        -0.48680
C          -0.75660        -0.70140        -1.61910
C          -1.18820        -2.16230        -1.88800
C          -0.50800        -3.20300        -1.00300
C          -0.90250        -2.50260        -3.35870
C           1.55790         1.36410         1.67110
C           2.83470         1.93270         1.66520
H           6.39300         0.45690         0.63170
H           5.95020         1.46530        -0.80090
H           7.02770         2.09680         0.45010
H           4.38150        -0.27280        -0.41040
H           2.16590        -1.26500        -0.39710
H           0.05650        -1.50450         0.95620
H          -2.52910        -1.52820         0.34910
H          -3.67770         1.29420         0.06410
H          -4.53730        -0.22080         0.28180
H          -3.71200         0.09390        -1.25090
H          -1.74810         1.82710        -1.22420
H          -1.18880         2.07990         0.43060
H          -0.02770         1.82120        -0.88240
H           0.31190        -0.59960        -1.84570
H          -1.26390        -0.10010        -2.38810
H          -2.27280        -2.24670        -1.75230
H           0.57880        -3.07500        -0.99730
H          -0.72160        -4.21700        -1.35950
H          -0.87450        -3.15600         0.02500
H           0.16990        -2.45190        -3.57660
H          -1.41940        -1.80740        -4.02870
H          -1.25060        -3.51270        -3.60050
H           0.78040         1.83580         2.26920
H           3.02540         2.82870         2.25120

