#Put Keywords Here, check Charge and Multiplicity.

 

0  1
C           5.97360         1.96430         1.16590
O           4.78860         2.11800         1.93630
C           3.61420         1.74050         1.34690
C           2.47790         1.93000         2.13340
C           1.21080         1.58530         1.65450
C           1.05370         1.03450         0.37500
C          -0.30740         0.64200        -0.16720
O          -1.32540         1.48860         0.38650
C          -2.50860         0.81580         0.40000
O          -3.56980         1.30460         0.75210
C          -2.32070        -0.59100        -0.11580
C          -2.84060        -0.61870        -1.55110
C          -0.80300        -0.80630         0.09700
C          -0.56550        -1.22220         1.57110
C          -0.11340        -1.81520        -0.86590
C          -0.24590        -3.33090        -0.57990
C           0.63910        -4.11060        -1.56230
C          -1.67030        -3.87110        -0.66020
C           2.20210         0.85770        -0.41240
C           3.47100         1.20430         0.06890
H           5.93810         2.57800         0.25960
H           6.81440         2.31480         1.77220
H           6.15350         0.91150         0.92430
H           2.57740         2.35520         3.12930
H           0.34710         1.75770         2.29390
H          -0.29930         0.85520        -1.24540
H          -2.90940        -1.26920         0.51050
H          -2.76770        -1.61440        -1.99140
H          -2.30270         0.08110        -2.19930
H          -3.89760        -0.32910        -1.57980
H          -0.91780        -0.46280         2.27760
H           0.49790        -1.39550         1.76940
H          -1.10080        -2.14560         1.81650
H           0.96320        -1.60520        -0.84150
H          -0.41440        -1.61310        -1.90110
H           0.14140        -3.53870         0.42450
H           0.60310        -5.18490        -1.35140
H           0.31470        -3.95680        -2.59720
H           1.68420        -3.79300        -1.48300
H          -1.68330        -4.94700        -0.45150
H          -2.32610        -3.39950         0.07400
H          -2.09670        -3.72820        -1.65750
H           2.12210         0.45040        -1.41840
H           4.32400         1.04450        -0.58200

