
     RDKit          3D

 44 45  0  0  0  0  0  0  0  0999 V2000
    5.9736    1.9643    1.1659 C   0  0  0  0  0  0  0  0  0  0  0  0
    4.7886    2.1180    1.9363 O   0  0  0  0  0  0  0  0  0  0  0  0
    3.6142    1.7405    1.3469 C   0  0  0  0  0  0  0  0  0  0  0  0
    2.4779    1.9300    2.1334 C   0  0  0  0  0  0  0  0  0  0  0  0
    1.2108    1.5853    1.6545 C   0  0  0  0  0  0  0  0  0  0  0  0
    1.0537    1.0345    0.3750 C   0  0  0  0  0  0  0  0  0  0  0  0
   -0.3074    0.6420   -0.1672 C   0  0  0  0  0  0  0  0  0  0  0  0
   -1.3254    1.4886    0.3865 O   0  0  0  0  0  0  0  0  0  0  0  0
   -2.5086    0.8158    0.4000 C   0  0  0  0  0  0  0  0  0  0  0  0
   -3.5698    1.3046    0.7521 O   0  0  0  0  0  0  0  0  0  0  0  0
   -2.3207   -0.5910   -0.1158 C   0  0  0  0  0  0  0  0  0  0  0  0
   -2.8406   -0.6187   -1.5511 C   0  0  0  0  0  0  0  0  0  0  0  0
   -0.8030   -0.8063    0.0970 C   0  0  0  0  0  0  0  0  0  0  0  0
   -0.5655   -1.2222    1.5711 C   0  0  0  0  0  0  0  0  0  0  0  0
   -0.1134   -1.8152   -0.8659 C   0  0  0  0  0  0  0  0  0  0  0  0
   -0.2459   -3.3309   -0.5799 C   0  0  0  0  0  0  0  0  0  0  0  0
    0.6391   -4.1106   -1.5623 C   0  0  0  0  0  0  0  0  0  0  0  0
   -1.6703   -3.8711   -0.6602 C   0  0  0  0  0  0  0  0  0  0  0  0
    2.2021    0.8577   -0.4124 C   0  0  0  0  0  0  0  0  0  0  0  0
    3.4710    1.2043    0.0689 C   0  0  0  0  0  0  0  0  0  0  0  0
    5.9381    2.5780    0.2596 H   0  0  0  0  0  0  0  0  0  0  0  0
    6.8144    2.3148    1.7722 H   0  0  0  0  0  0  0  0  0  0  0  0
    6.1535    0.9115    0.9243 H   0  0  0  0  0  0  0  0  0  0  0  0
    2.5774    2.3552    3.1293 H   0  0  0  0  0  0  0  0  0  0  0  0
    0.3471    1.7577    2.2939 H   0  0  0  0  0  0  0  0  0  0  0  0
   -0.2993    0.8552   -1.2454 H   0  0  0  0  0  0  0  0  0  0  0  0
   -2.9094   -1.2692    0.5105 H   0  0  0  0  0  0  0  0  0  0  0  0
   -2.7677   -1.6144   -1.9914 H   0  0  0  0  0  0  0  0  0  0  0  0
   -2.3027    0.0811   -2.1993 H   0  0  0  0  0  0  0  0  0  0  0  0
   -3.8976   -0.3291   -1.5798 H   0  0  0  0  0  0  0  0  0  0  0  0
   -0.9178   -0.4628    2.2776 H   0  0  0  0  0  0  0  0  0  0  0  0
    0.4979   -1.3955    1.7694 H   0  0  0  0  0  0  0  0  0  0  0  0
   -1.1008   -2.1456    1.8165 H   0  0  0  0  0  0  0  0  0  0  0  0
    0.9632   -1.6052   -0.8415 H   0  0  0  0  0  0  0  0  0  0  0  0
   -0.4144   -1.6131   -1.9011 H   0  0  0  0  0  0  0  0  0  0  0  0
    0.1414   -3.5387    0.4245 H   0  0  0  0  0  0  0  0  0  0  0  0
    0.6031   -5.1849   -1.3514 H   0  0  0  0  0  0  0  0  0  0  0  0
    0.3147   -3.9568   -2.5972 H   0  0  0  0  0  0  0  0  0  0  0  0
    1.6842   -3.7930   -1.4830 H   0  0  0  0  0  0  0  0  0  0  0  0
   -1.6833   -4.9470   -0.4515 H   0  0  0  0  0  0  0  0  0  0  0  0
   -2.3261   -3.3995    0.0740 H   0  0  0  0  0  0  0  0  0  0  0  0
   -2.0967   -3.7282   -1.6575 H   0  0  0  0  0  0  0  0  0  0  0  0
    2.1221    0.4504   -1.4184 H   0  0  0  0  0  0  0  0  0  0  0  0
    4.3240    1.0445   -0.5820 H   0  0  0  0  0  0  0  0  0  0  0  0
  1  2  1  0
  2  3  1  0
  3  4  2  0
  4  5  1  0
  5  6  2  0
  6  7  1  0
  7  8  1  0
  8  9  1  0
  9 10  2  0
  9 11  1  0
 11 12  1  0
 11 13  1  0
 13 14  1  0
 13 15  1  0
 15 16  1  0
 16 17  1  0
 16 18  1  0
  6 19  1  0
 19 20  2  0
 20  3  1  0
 13  7  1  0
  1 21  1  0
  1 22  1  0
  1 23  1  0
  4 24  1  0
  5 25  1  0
  7 26  1  0
 11 27  1  0
 12 28  1  0
 12 29  1  0
 12 30  1  0
 14 31  1  0
 14 32  1  0
 14 33  1  0
 15 34  1  0
 15 35  1  0
 16 36  1  0
 17 37  1  0
 17 38  1  0
 17 39  1  0
 18 40  1  0
 18 41  1  0
 18 42  1  0
 19 43  1  0
 20 44  1  0
M  END
>  <energy_abs>  (16) 
44.30841573457876

>  <SMILES>  (16) 
COc1ccc(C2OC(=O)C(C)C2(C)CC(C)C)cc1

>  <cluster_no>  (16) 
16

>  <ccdc_id>  (16) 
33

>  <initial_conformation_id>  (16) 
197

>  <minimize_method>  (16) 
MMFF

$$$$
