
     RDKit          3D

 44 45  0  0  0  0  0  0  0  0999 V2000
    5.5850    0.8635    2.0398 C   0  0  0  0  0  0  0  0  0  0  0  0
    4.9868    0.9496    0.7525 O   0  0  0  0  0  0  0  0  0  0  0  0
    3.6210    0.9243    0.7042 C   0  0  0  0  0  0  0  0  0  0  0  0
    3.0784    1.0321   -0.5750 C   0  0  0  0  0  0  0  0  0  0  0  0
    1.6935    1.0175   -0.7675 C   0  0  0  0  0  0  0  0  0  0  0  0
    0.8134    0.8777    0.3161 C   0  0  0  0  0  0  0  0  0  0  0  0
   -0.6852    0.8705    0.0666 C   0  0  0  0  0  0  0  0  0  0  0  0
   -1.3532    1.5249    1.1595 O   0  0  0  0  0  0  0  0  0  0  0  0
   -2.0116    0.6180    1.9304 C   0  0  0  0  0  0  0  0  0  0  0  0
   -2.5506    0.8944    2.9905 O   0  0  0  0  0  0  0  0  0  0  0  0
   -1.9699   -0.7547    1.3103 C   0  0  0  0  0  0  0  0  0  0  0  0
   -1.1691   -1.7066    2.1906 C   0  0  0  0  0  0  0  0  0  0  0  0
   -1.4414   -0.4723   -0.1174 C   0  0  0  0  0  0  0  0  0  0  0  0
   -2.6861   -0.1891   -1.0029 C   0  0  0  0  0  0  0  0  0  0  0  0
   -0.6217   -1.6559   -0.7061 C   0  0  0  0  0  0  0  0  0  0  0  0
   -0.2115   -1.5734   -2.1964 C   0  0  0  0  0  0  0  0  0  0  0  0
    1.1615   -2.2284   -2.4001 C   0  0  0  0  0  0  0  0  0  0  0  0
   -1.2126   -2.2843   -3.1161 C   0  0  0  0  0  0  0  0  0  0  0  0
    1.3728    0.7981    1.6001 C   0  0  0  0  0  0  0  0  0  0  0  0
    2.7611    0.8133    1.7933 C   0  0  0  0  0  0  0  0  0  0  0  0
    5.2982    1.7147    2.6662 H   0  0  0  0  0  0  0  0  0  0  0  0
    6.6706    0.8992    1.9068 H   0  0  0  0  0  0  0  0  0  0  0  0
    5.3402   -0.0865    2.5261 H   0  0  0  0  0  0  0  0  0  0  0  0
    3.7398    1.1347   -1.4320 H   0  0  0  0  0  0  0  0  0  0  0  0
    1.3137    1.1256   -1.7808 H   0  0  0  0  0  0  0  0  0  0  0  0
   -0.8598    1.5138   -0.8060 H   0  0  0  0  0  0  0  0  0  0  0  0
   -3.0017   -1.1259    1.2639 H   0  0  0  0  0  0  0  0  0  0  0  0
   -1.2345   -2.7332    1.8167 H   0  0  0  0  0  0  0  0  0  0  0  0
   -0.1132   -1.4370    2.2529 H   0  0  0  0  0  0  0  0  0  0  0  0
   -1.5606   -1.7077    3.2141 H   0  0  0  0  0  0  0  0  0  0  0  0
   -3.2907   -1.0940   -1.1293 H   0  0  0  0  0  0  0  0  0  0  0  0
   -3.3364    0.5748   -0.5599 H   0  0  0  0  0  0  0  0  0  0  0  0
   -2.4014    0.1800   -1.9934 H   0  0  0  0  0  0  0  0  0  0  0  0
   -1.1962   -2.5813   -0.5622 H   0  0  0  0  0  0  0  0  0  0  0  0
    0.2825   -1.7829   -0.0982 H   0  0  0  0  0  0  0  0  0  0  0  0
   -0.1376   -0.5277   -2.5102 H   0  0  0  0  0  0  0  0  0  0  0  0
    1.4764   -2.1543   -3.4466 H   0  0  0  0  0  0  0  0  0  0  0  0
    1.9283   -1.7420   -1.7901 H   0  0  0  0  0  0  0  0  0  0  0  0
    1.1389   -3.2892   -2.1271 H   0  0  0  0  0  0  0  0  0  0  0  0
   -0.8844   -2.2247   -4.1598 H   0  0  0  0  0  0  0  0  0  0  0  0
   -1.3058   -3.3447   -2.8566 H   0  0  0  0  0  0  0  0  0  0  0  0
   -2.2085   -1.8404   -3.0669 H   0  0  0  0  0  0  0  0  0  0  0  0
    0.7395    0.7430    2.4829 H   0  0  0  0  0  0  0  0  0  0  0  0
    3.1321    0.7466    2.8107 H   0  0  0  0  0  0  0  0  0  0  0  0
  1  2  1  0
  2  3  1  0
  3  4  2  0
  4  5  1  0
  5  6  2  0
  6  7  1  0
  7  8  1  0
  8  9  1  0
  9 10  2  0
  9 11  1  0
 11 12  1  0
 11 13  1  0
 13 14  1  0
 13 15  1  0
 15 16  1  0
 16 17  1  0
 16 18  1  0
  6 19  1  0
 19 20  2  0
 20  3  1  0
 13  7  1  0
  1 21  1  0
  1 22  1  0
  1 23  1  0
  4 24  1  0
  5 25  1  0
  7 26  1  0
 11 27  1  0
 12 28  1  0
 12 29  1  0
 12 30  1  0
 14 31  1  0
 14 32  1  0
 14 33  1  0
 15 34  1  0
 15 35  1  0
 16 36  1  0
 17 37  1  0
 17 38  1  0
 17 39  1  0
 18 40  1  0
 18 41  1  0
 18 42  1  0
 19 43  1  0
 20 44  1  0
M  END
>  <energy_abs>  (163) 
47.679285560188205

>  <SMILES>  (163) 
COc1ccc(C2OC(=O)C(C)C2(C)CC(C)C)cc1

>  <cluster_no>  (163) 
163

>  <ccdc_id>  (163) 
33

>  <initial_conformation_id>  (163) 
127

>  <minimize_method>  (163) 
MMFF

$$$$
