
     RDKit          3D

 44 45  0  0  0  0  0  0  0  0999 V2000
    6.0446    1.1384    0.2412 C   0  0  0  0  0  0  0  0  0  0  0  0
    5.1907    0.4316    1.1316 O   0  0  0  0  0  0  0  0  0  0  0  0
    3.8448    0.5554    0.9263 C   0  0  0  0  0  0  0  0  0  0  0  0
    3.0479   -0.1416    1.8336 C   0  0  0  0  0  0  0  0  0  0  0  0
    1.6538   -0.1039    1.7368 C   0  0  0  0  0  0  0  0  0  0  0  0
    1.0214    0.6191    0.7151 C   0  0  0  0  0  0  0  0  0  0  0  0
   -0.4871    0.6788    0.5925 C   0  0  0  0  0  0  0  0  0  0  0  0
   -1.0253    0.9298    1.9046 O   0  0  0  0  0  0  0  0  0  0  0  0
   -2.2964    0.4492    1.9779 C   0  0  0  0  0  0  0  0  0  0  0  0
   -3.0185    0.5695    2.9532 O   0  0  0  0  0  0  0  0  0  0  0  0
   -2.6669   -0.2022    0.6715 C   0  0  0  0  0  0  0  0  0  0  0  0
   -3.6473   -1.3523    0.8528 C   0  0  0  0  0  0  0  0  0  0  0  0
   -1.2745   -0.5470    0.0625 C   0  0  0  0  0  0  0  0  0  0  0  0
   -0.7831   -1.8987    0.6248 C   0  0  0  0  0  0  0  0  0  0  0  0
   -1.4268   -0.6060   -1.4871 C   0  0  0  0  0  0  0  0  0  0  0  0
   -0.1924   -0.5686   -2.4118 C   0  0  0  0  0  0  0  0  0  0  0  0
    0.7791   -1.7307   -2.2320 C   0  0  0  0  0  0  0  0  0  0  0  0
   -0.6688   -0.5457   -3.8730 C   0  0  0  0  0  0  0  0  0  0  0  0
    1.8340    1.3408   -0.1728 C   0  0  0  0  0  0  0  0  0  0  0  0
    3.2312    1.3035   -0.0755 C   0  0  0  0  0  0  0  0  0  0  0  0
    7.0782    0.9371    0.5388 H   0  0  0  0  0  0  0  0  0  0  0  0
    5.9200    0.7863   -0.7882 H   0  0  0  0  0  0  0  0  0  0  0  0
    5.8821    2.2189    0.3125 H   0  0  0  0  0  0  0  0  0  0  0  0
    3.5152   -0.7137    2.6316 H   0  0  0  0  0  0  0  0  0  0  0  0
    1.0675   -0.6390    2.4810 H   0  0  0  0  0  0  0  0  0  0  0  0
   -0.7442    1.5661   -0.0037 H   0  0  0  0  0  0  0  0  0  0  0  0
   -3.1582    0.5814    0.0784 H   0  0  0  0  0  0  0  0  0  0  0  0
   -3.3115   -2.0689    1.6094 H   0  0  0  0  0  0  0  0  0  0  0  0
   -4.6165   -0.9709    1.1939 H   0  0  0  0  0  0  0  0  0  0  0  0
   -3.8130   -1.8848   -0.0883 H   0  0  0  0  0  0  0  0  0  0  0  0
   -0.8691   -1.9405    1.7164 H   0  0  0  0  0  0  0  0  0  0  0  0
   -1.3680   -2.7326    0.2204 H   0  0  0  0  0  0  0  0  0  0  0  0
    0.2596   -2.1053    0.3852 H   0  0  0  0  0  0  0  0  0  0  0  0
   -2.0180   -1.4974   -1.7401 H   0  0  0  0  0  0  0  0  0  0  0  0
   -2.0553    0.2445   -1.7888 H   0  0  0  0  0  0  0  0  0  0  0  0
    0.3466    0.3676   -2.2505 H   0  0  0  0  0  0  0  0  0  0  0  0
    0.2539   -2.6909   -2.2023 H   0  0  0  0  0  0  0  0  0  0  0  0
    1.3666   -1.6211   -1.3185 H   0  0  0  0  0  0  0  0  0  0  0  0
    1.5008   -1.7697   -3.0557 H   0  0  0  0  0  0  0  0  0  0  0  0
   -1.3337    0.3055   -4.0546 H   0  0  0  0  0  0  0  0  0  0  0  0
    0.1801   -0.4517   -4.5589 H   0  0  0  0  0  0  0  0  0  0  0  0
   -1.2115   -1.4623   -4.1283 H   0  0  0  0  0  0  0  0  0  0  0  0
    1.3882    1.9537   -0.9536 H   0  0  0  0  0  0  0  0  0  0  0  0
    3.8071    1.8762   -0.7946 H   0  0  0  0  0  0  0  0  0  0  0  0
  1  2  1  0
  2  3  1  0
  3  4  2  0
  4  5  1  0
  5  6  2  0
  6  7  1  0
  7  8  1  0
  8  9  1  0
  9 10  2  0
  9 11  1  0
 11 12  1  0
 11 13  1  0
 13 14  1  0
 13 15  1  0
 15 16  1  0
 16 17  1  0
 16 18  1  0
  6 19  1  0
 19 20  2  0
 20  3  1  0
 13  7  1  0
  1 21  1  0
  1 22  1  0
  1 23  1  0
  4 24  1  0
  5 25  1  0
  7 26  1  0
 11 27  1  0
 12 28  1  0
 12 29  1  0
 12 30  1  0
 14 31  1  0
 14 32  1  0
 14 33  1  0
 15 34  1  0
 15 35  1  0
 16 36  1  0
 17 37  1  0
 17 38  1  0
 17 39  1  0
 18 40  1  0
 18 41  1  0
 18 42  1  0
 19 43  1  0
 20 44  1  0
M  END
>  <energy_abs>  (164) 
46.7843201155883

>  <SMILES>  (164) 
COc1ccc(C2OC(=O)C(C)C2(C)CC(C)C)cc1

>  <cluster_no>  (164) 
164

>  <ccdc_id>  (164) 
33

>  <initial_conformation_id>  (164) 
125

>  <minimize_method>  (164) 
MMFF

$$$$
