
     RDKit          3D

 44 45  0  0  0  0  0  0  0  0999 V2000
    5.9997    1.1356    0.4757 C   0  0  0  0  0  0  0  0  0  0  0  0
    4.8514    1.8366    0.9354 O   0  0  0  0  0  0  0  0  0  0  0  0
    3.6845    1.1288    1.0131 C   0  0  0  0  0  0  0  0  0  0  0  0
    3.5116   -0.2109    0.6753 C   0  0  0  0  0  0  0  0  0  0  0  0
    2.2531   -0.8123    0.8029 C   0  0  0  0  0  0  0  0  0  0  0  0
    1.1388   -0.0868    1.2581 C   0  0  0  0  0  0  0  0  0  0  0  0
   -0.2065   -0.7832    1.3804 C   0  0  0  0  0  0  0  0  0  0  0  0
   -1.0318   -0.1153    2.3488 O   0  0  0  0  0  0  0  0  0  0  0  0
   -2.0467    0.5494    1.7326 C   0  0  0  0  0  0  0  0  0  0  0  0
   -2.8387    1.2701    2.3192 O   0  0  0  0  0  0  0  0  0  0  0  0
   -2.0417    0.2924    0.2469 C   0  0  0  0  0  0  0  0  0  0  0  0
   -1.6403    1.5691   -0.4814 C   0  0  0  0  0  0  0  0  0  0  0  0
   -1.1088   -0.9305    0.1227 C   0  0  0  0  0  0  0  0  0  0  0  0
   -1.9674   -2.2080    0.3348 C   0  0  0  0  0  0  0  0  0  0  0  0
   -0.3265   -1.0422   -1.2158 C   0  0  0  0  0  0  0  0  0  0  0  0
   -1.1727   -1.2281   -2.5004 C   0  0  0  0  0  0  0  0  0  0  0  0
   -0.5418   -0.4524   -3.6643 C   0  0  0  0  0  0  0  0  0  0  0  0
   -1.2805   -2.7012   -2.9113 C   0  0  0  0  0  0  0  0  0  0  0  0
    1.3337    1.2544    1.6141 C   0  0  0  0  0  0  0  0  0  0  0  0
    2.5908    1.8537    1.4857 C   0  0  0  0  0  0  0  0  0  0  0  0
    5.8612    0.7817   -0.5513 H   0  0  0  0  0  0  0  0  0  0  0  0
    6.8410    1.8355    0.4758 H   0  0  0  0  0  0  0  0  0  0  0  0
    6.2537    0.3096    1.1482 H   0  0  0  0  0  0  0  0  0  0  0  0
    4.3334   -0.8197    0.3137 H   0  0  0  0  0  0  0  0  0  0  0  0
    2.1533   -1.8647    0.5430 H   0  0  0  0  0  0  0  0  0  0  0  0
    0.0016   -1.7740    1.8066 H   0  0  0  0  0  0  0  0  0  0  0  0
   -3.0632    0.0263   -0.0506 H   0  0  0  0  0  0  0  0  0  0  0  0
   -2.2751    2.4069   -0.1711 H   0  0  0  0  0  0  0  0  0  0  0  0
   -1.7591    1.4599   -1.5623 H   0  0  0  0  0  0  0  0  0  0  0  0
   -0.6072    1.8609   -0.2813 H   0  0  0  0  0  0  0  0  0  0  0  0
   -2.4426   -2.2225    1.3228 H   0  0  0  0  0  0  0  0  0  0  0  0
   -1.3499   -3.1101    0.2596 H   0  0  0  0  0  0  0  0  0  0  0  0
   -2.7741   -2.2790   -0.4016 H   0  0  0  0  0  0  0  0  0  0  0  0
    0.3836   -1.8762   -1.1439 H   0  0  0  0  0  0  0  0  0  0  0  0
    0.2883   -0.1416   -1.3328 H   0  0  0  0  0  0  0  0  0  0  0  0
   -2.1835   -0.8339   -2.3474 H   0  0  0  0  0  0  0  0  0  0  0  0
   -1.1354   -0.5691   -4.5774 H   0  0  0  0  0  0  0  0  0  0  0  0
   -0.4880    0.6179   -3.4407 H   0  0  0  0  0  0  0  0  0  0  0  0
    0.4742   -0.8056   -3.8724 H   0  0  0  0  0  0  0  0  0  0  0  0
   -1.8836   -2.8036   -3.8202 H   0  0  0  0  0  0  0  0  0  0  0  0
   -1.7526   -3.3117   -2.1390 H   0  0  0  0  0  0  0  0  0  0  0  0
   -0.2927   -3.1284   -3.1171 H   0  0  0  0  0  0  0  0  0  0  0  0
    0.5169    1.8569    2.0061 H   0  0  0  0  0  0  0  0  0  0  0  0
    2.7177    2.8972    1.7651 H   0  0  0  0  0  0  0  0  0  0  0  0
  1  2  1  0
  2  3  1  0
  3  4  2  0
  4  5  1  0
  5  6  2  0
  6  7  1  0
  7  8  1  0
  8  9  1  0
  9 10  2  0
  9 11  1  0
 11 12  1  0
 11 13  1  0
 13 14  1  0
 13 15  1  0
 15 16  1  0
 16 17  1  0
 16 18  1  0
  6 19  1  0
 19 20  2  0
 20  3  1  0
 13  7  1  0
  1 21  1  0
  1 22  1  0
  1 23  1  0
  4 24  1  0
  5 25  1  0
  7 26  1  0
 11 27  1  0
 12 28  1  0
 12 29  1  0
 12 30  1  0
 14 31  1  0
 14 32  1  0
 14 33  1  0
 15 34  1  0
 15 35  1  0
 16 36  1  0
 17 37  1  0
 17 38  1  0
 17 39  1  0
 18 40  1  0
 18 41  1  0
 18 42  1  0
 19 43  1  0
 20 44  1  0
M  END
>  <energy_abs>  (165) 
46.724231531350284

>  <SMILES>  (165) 
COc1ccc(C2OC(=O)C(C)C2(C)CC(C)C)cc1

>  <cluster_no>  (165) 
165

>  <ccdc_id>  (165) 
33

>  <initial_conformation_id>  (165) 
124

>  <minimize_method>  (165) 
MMFF

$$$$
