
     RDKit          3D

 44 45  0  0  0  0  0  0  0  0999 V2000
    5.3455    1.9433    3.1304 C   0  0  0  0  0  0  0  0  0  0  0  0
    5.2130    1.1471    1.9596 O   0  0  0  0  0  0  0  0  0  0  0  0
    3.9477    0.9727    1.4720 C   0  0  0  0  0  0  0  0  0  0  0  0
    2.7761    1.4867    2.0230 C   0  0  0  0  0  0  0  0  0  0  0  0
    1.5380    1.2288    1.4196 C   0  0  0  0  0  0  0  0  0  0  0  0
    1.4455    0.4462    0.2593 C   0  0  0  0  0  0  0  0  0  0  0  0
    0.1230    0.1427   -0.4251 C   0  0  0  0  0  0  0  0  0  0  0  0
   -0.8473    1.1481   -0.0951 O   0  0  0  0  0  0  0  0  0  0  0  0
   -1.8126    0.6380    0.7145 C   0  0  0  0  0  0  0  0  0  0  0  0
   -2.7049    1.3096    1.2082 O   0  0  0  0  0  0  0  0  0  0  0  0
   -1.6152   -0.8379    0.9355 C   0  0  0  0  0  0  0  0  0  0  0  0
   -1.2361   -1.0689    2.3958 C   0  0  0  0  0  0  0  0  0  0  0  0
   -0.5738   -1.2096   -0.1339 C   0  0  0  0  0  0  0  0  0  0  0  0
    0.3816   -2.3312    0.3276 C   0  0  0  0  0  0  0  0  0  0  0  0
   -1.2555   -1.7583   -1.4460 C   0  0  0  0  0  0  0  0  0  0  0  0
   -2.2188   -0.8607   -2.2650 C   0  0  0  0  0  0  0  0  0  0  0  0
   -2.1803   -1.2943   -3.7389 C   0  0  0  0  0  0  0  0  0  0  0  0
   -3.6707   -0.9360   -1.7856 C   0  0  0  0  0  0  0  0  0  0  0  0
    2.6358   -0.0519   -0.2938 C   0  0  0  0  0  0  0  0  0  0  0  0
    3.8695    0.2051    0.3103 C   0  0  0  0  0  0  0  0  0  0  0  0
    4.8210    1.4894    3.9777 H   0  0  0  0  0  0  0  0  0  0  0  0
    6.4090    1.9901    3.3841 H   0  0  0  0  0  0  0  0  0  0  0  0
    5.0002    2.9672    2.9531 H   0  0  0  0  0  0  0  0  0  0  0  0
    2.7855    2.0983    2.9192 H   0  0  0  0  0  0  0  0  0  0  0  0
    0.6482    1.6630    1.8716 H   0  0  0  0  0  0  0  0  0  0  0  0
    0.3083    0.2489   -1.5018 H   0  0  0  0  0  0  0  0  0  0  0  0
   -2.5574   -1.3605    0.7477 H   0  0  0  0  0  0  0  0  0  0  0  0
   -1.1340   -2.1370    2.6123 H   0  0  0  0  0  0  0  0  0  0  0  0
   -2.0135   -0.6757    3.0609 H   0  0  0  0  0  0  0  0  0  0  0  0
   -0.3025   -0.5702    2.6686 H   0  0  0  0  0  0  0  0  0  0  0  0
    1.1065   -2.5842   -0.4542 H   0  0  0  0  0  0  0  0  0  0  0  0
   -0.1779   -3.2454    0.5582 H   0  0  0  0  0  0  0  0  0  0  0  0
    0.9485   -2.0645    1.2248 H   0  0  0  0  0  0  0  0  0  0  0  0
   -0.4319   -2.0466   -2.1158 H   0  0  0  0  0  0  0  0  0  0  0  0
   -1.7734   -2.6977   -1.2061 H   0  0  0  0  0  0  0  0  0  0  0  0
   -1.8956    0.1837   -2.2371 H   0  0  0  0  0  0  0  0  0  0  0  0
   -1.1698   -1.1917   -4.1488 H   0  0  0  0  0  0  0  0  0  0  0  0
   -2.4913   -2.3383   -3.8542 H   0  0  0  0  0  0  0  0  0  0  0  0
   -2.8456   -0.6720   -4.3473 H   0  0  0  0  0  0  0  0  0  0  0  0
   -4.0199   -1.9728   -1.7333 H   0  0  0  0  0  0  0  0  0  0  0  0
   -4.3333   -0.3962   -2.4716 H   0  0  0  0  0  0  0  0  0  0  0  0
   -3.8046   -0.4814   -0.8033 H   0  0  0  0  0  0  0  0  0  0  0  0
    2.6157   -0.6471   -1.2045 H   0  0  0  0  0  0  0  0  0  0  0  0
    4.7794   -0.1937   -0.1318 H   0  0  0  0  0  0  0  0  0  0  0  0
  1  2  1  0
  2  3  1  0
  3  4  2  0
  4  5  1  0
  5  6  2  0
  6  7  1  0
  7  8  1  0
  8  9  1  0
  9 10  2  0
  9 11  1  0
 11 12  1  0
 11 13  1  0
 13 14  1  0
 13 15  1  0
 15 16  1  0
 16 17  1  0
 16 18  1  0
  6 19  1  0
 19 20  2  0
 20  3  1  0
 13  7  1  0
  1 21  1  0
  1 22  1  0
  1 23  1  0
  4 24  1  0
  5 25  1  0
  7 26  1  0
 11 27  1  0
 12 28  1  0
 12 29  1  0
 12 30  1  0
 14 31  1  0
 14 32  1  0
 14 33  1  0
 15 34  1  0
 15 35  1  0
 16 36  1  0
 17 37  1  0
 17 38  1  0
 17 39  1  0
 18 40  1  0
 18 41  1  0
 18 42  1  0
 19 43  1  0
 20 44  1  0
M  END
>  <energy_abs>  (166) 
48.05840605656661

>  <SMILES>  (166) 
COc1ccc(C2OC(=O)C(C)C2(C)CC(C)C)cc1

>  <cluster_no>  (166) 
166

>  <ccdc_id>  (166) 
33

>  <initial_conformation_id>  (166) 
123

>  <minimize_method>  (166) 
MMFF

$$$$
