#Put Keywords Here, check Charge and Multiplicity.

 

0  1
C           6.09780         0.81920         1.49050
O           4.92050         1.28030         2.14080
C           3.73130         1.03770         1.51230
C           3.56210         0.37520         0.29960
C           2.27840         0.19370        -0.23150
C           1.13490         0.65690         0.44080
C          -0.24090         0.44600        -0.17580
O          -1.19180         1.36180         0.39520
C          -2.01690         0.71140         1.25810
O          -2.84090         1.27220         1.96270
C          -1.75890        -0.77120         1.23230
C          -1.13560        -1.21030         2.55230
C          -0.91410        -0.94800        -0.05940
C           0.04200        -2.14560         0.01730
C          -1.93560        -1.16100        -1.24520
C          -1.42830        -1.70740        -2.60250
C          -2.63140        -1.96330        -3.52180
C          -0.44380        -0.79130        -3.32240
C           1.32490         1.34150         1.64970
C           2.60690         1.52150         2.17960
H           6.95360         1.09200         2.11540
H           6.22760         1.30480         0.51770
H           6.09240        -0.27130         1.39100
H           4.40570        -0.00970        -0.26350
H           2.18610        -0.31600        -1.18780
H          -0.15480         0.75280        -1.22120
H          -2.72850        -1.27370         1.13520
H          -0.15910        -0.75460         2.72950
H          -1.01810        -2.29810         2.58620
H          -1.77740        -0.92520         3.39370
H           0.66790        -2.22750        -0.87590
H          -0.51990        -3.08160         0.11510
H           0.72150        -2.08720         0.87310
H          -2.48590        -0.22690        -1.42450
H          -2.68990        -1.88310        -0.90060
H          -0.94360        -2.67740        -2.44170
H          -3.16980        -1.03450        -3.73920
H          -2.30940        -2.39950        -4.47350
H          -3.33470        -2.66390        -3.05910
H          -0.20680        -1.18140        -4.31860
H           0.50150        -0.71910        -2.78110
H          -0.85470         0.21580        -3.44860
H           0.48310         1.75510         2.20130
H           2.72740         2.05240         3.12130

