
     RDKit          3D

 44 45  0  0  0  0  0  0  0  0999 V2000
    6.1005    0.7138    0.6832 C   0  0  0  0  0  0  0  0  0  0  0  0
    5.0124    1.5973    0.4449 O   0  0  0  0  0  0  0  0  0  0  0  0
    3.7554    1.0963    0.6388 C   0  0  0  0  0  0  0  0  0  0  0  0
    2.7219    2.0036    0.4090 C   0  0  0  0  0  0  0  0  0  0  0  0
    1.3865    1.6216    0.5675 C   0  0  0  0  0  0  0  0  0  0  0  0
    1.0510    0.3127    0.9428 C   0  0  0  0  0  0  0  0  0  0  0  0
   -0.3880   -0.1234    1.1255 C   0  0  0  0  0  0  0  0  0  0  0  0
   -1.0622    0.8942    1.8899 O   0  0  0  0  0  0  0  0  0  0  0  0
   -2.3949    0.8656    1.6154 C   0  0  0  0  0  0  0  0  0  0  0  0
   -3.2210    1.5793    2.1588 O   0  0  0  0  0  0  0  0  0  0  0  0
   -2.6764   -0.1964    0.5853 C   0  0  0  0  0  0  0  0  0  0  0  0
   -3.8606    0.1556   -0.3038 C   0  0  0  0  0  0  0  0  0  0  0  0
   -1.2921   -0.3630   -0.1108 C   0  0  0  0  0  0  0  0  0  0  0  0
   -1.1367    0.7029   -1.2173 C   0  0  0  0  0  0  0  0  0  0  0  0
   -1.2204   -1.8022   -0.7040 C   0  0  0  0  0  0  0  0  0  0  0  0
    0.1245   -2.4185   -1.1414 C   0  0  0  0  0  0  0  0  0  0  0  0
    0.8375   -1.6714   -2.2640 C   0  0  0  0  0  0  0  0  0  0  0  0
   -0.1177   -3.8685   -1.5901 C   0  0  0  0  0  0  0  0  0  0  0  0
    2.1011   -0.5817    1.2007 C   0  0  0  0  0  0  0  0  0  0  0  0
    3.4395   -0.1987    1.0423 C   0  0  0  0  0  0  0  0  0  0  0  0
    6.1229    0.3880    1.7284 H   0  0  0  0  0  0  0  0  0  0  0  0
    6.0700   -0.1429    0.0019 H   0  0  0  0  0  0  0  0  0  0  0  0
    7.0263    1.2628    0.4860 H   0  0  0  0  0  0  0  0  0  0  0  0
    2.9568    3.0231    0.1121 H   0  0  0  0  0  0  0  0  0  0  0  0
    0.6109    2.3672    0.4053 H   0  0  0  0  0  0  0  0  0  0  0  0
   -0.3926   -1.0193    1.7630 H   0  0  0  0  0  0  0  0  0  0  0  0
   -2.9277   -1.1020    1.1544 H   0  0  0  0  0  0  0  0  0  0  0  0
   -3.9761   -0.5682   -1.1160 H   0  0  0  0  0  0  0  0  0  0  0  0
   -4.7868    0.1483    0.2820 H   0  0  0  0  0  0  0  0  0  0  0  0
   -3.7730    1.1583   -0.7345 H   0  0  0  0  0  0  0  0  0  0  0  0
   -1.3899    1.7055   -0.8547 H   0  0  0  0  0  0  0  0  0  0  0  0
   -0.1230    0.7604   -1.6131 H   0  0  0  0  0  0  0  0  0  0  0  0
   -1.7931    0.4895   -2.0685 H   0  0  0  0  0  0  0  0  0  0  0  0
   -1.6367   -2.4890    0.0471 H   0  0  0  0  0  0  0  0  0  0  0  0
   -1.9157   -1.8581   -1.5535 H   0  0  0  0  0  0  0  0  0  0  0  0
    0.7906   -2.4723   -0.2774 H   0  0  0  0  0  0  0  0  0  0  0  0
    1.6552   -2.2724   -2.6776 H   0  0  0  0  0  0  0  0  0  0  0  0
    1.2928   -0.7479   -1.9016 H   0  0  0  0  0  0  0  0  0  0  0  0
    0.1523   -1.4308   -3.0832 H   0  0  0  0  0  0  0  0  0  0  0  0
   -0.7700   -3.9084   -2.4693 H   0  0  0  0  0  0  0  0  0  0  0  0
    0.8268   -4.3610   -1.8455 H   0  0  0  0  0  0  0  0  0  0  0  0
   -0.5872   -4.4522   -0.7910 H   0  0  0  0  0  0  0  0  0  0  0  0
    1.8918   -1.5945    1.5391 H   0  0  0  0  0  0  0  0  0  0  0  0
    4.2080   -0.9357    1.2496 H   0  0  0  0  0  0  0  0  0  0  0  0
  1  2  1  0
  2  3  1  0
  3  4  2  0
  4  5  1  0
  5  6  2  0
  6  7  1  0
  7  8  1  0
  8  9  1  0
  9 10  2  0
  9 11  1  0
 11 12  1  0
 11 13  1  0
 13 14  1  0
 13 15  1  0
 15 16  1  0
 16 17  1  0
 16 18  1  0
  6 19  1  0
 19 20  2  0
 20  3  1  0
 13  7  1  0
  1 21  1  0
  1 22  1  0
  1 23  1  0
  4 24  1  0
  5 25  1  0
  7 26  1  0
 11 27  1  0
 12 28  1  0
 12 29  1  0
 12 30  1  0
 14 31  1  0
 14 32  1  0
 14 33  1  0
 15 34  1  0
 15 35  1  0
 16 36  1  0
 17 37  1  0
 17 38  1  0
 17 39  1  0
 18 40  1  0
 18 41  1  0
 18 42  1  0
 19 43  1  0
 20 44  1  0
M  END
>  <energy_abs>  (169) 
46.78432013924045

>  <SMILES>  (169) 
COc1ccc(C2OC(=O)C(C)C2(C)CC(C)C)cc1

>  <cluster_no>  (169) 
169

>  <ccdc_id>  (169) 
33

>  <initial_conformation_id>  (169) 
120

>  <minimize_method>  (169) 
MMFF

$$$$
