
     RDKit          3D

 44 45  0  0  0  0  0  0  0  0999 V2000
    5.8344    1.6734    1.3636 C   0  0  0  0  0  0  0  0  0  0  0  0
    4.8510    1.9681    0.3799 O   0  0  0  0  0  0  0  0  0  0  0  0
    3.5649    1.5999    0.6612 C   0  0  0  0  0  0  0  0  0  0  0  0
    2.6317    1.9399   -0.3184 C   0  0  0  0  0  0  0  0  0  0  0  0
    1.2788    1.6220   -0.1630 C   0  0  0  0  0  0  0  0  0  0  0  0
    0.8303    0.9500    0.9820 C   0  0  0  0  0  0  0  0  0  0  0  0
   -0.6239    0.5591    1.1902 C   0  0  0  0  0  0  0  0  0  0  0  0
   -1.4827    1.5732    0.6511 O   0  0  0  0  0  0  0  0  0  0  0  0
   -2.0472    1.1386   -0.5079 C   0  0  0  0  0  0  0  0  0  0  0  0
   -2.7536    1.8373   -1.2172 O   0  0  0  0  0  0  0  0  0  0  0  0
   -1.6487   -0.2907   -0.7943 C   0  0  0  0  0  0  0  0  0  0  0  0
   -2.8316   -1.0380   -1.4013 C   0  0  0  0  0  0  0  0  0  0  0  0
   -1.1303   -0.7780    0.5708 C   0  0  0  0  0  0  0  0  0  0  0  0
   -2.2775   -1.2962    1.4772 C   0  0  0  0  0  0  0  0  0  0  0  0
   -0.0079   -1.8568    0.4971 C   0  0  0  0  0  0  0  0  0  0  0  0
   -0.3554   -3.2193   -0.1460 C   0  0  0  0  0  0  0  0  0  0  0  0
    0.3669   -4.3497    0.5974 C   0  0  0  0  0  0  0  0  0  0  0  0
    0.0519   -3.2676   -1.6224 C   0  0  0  0  0  0  0  0  0  0  0  0
    1.7777    0.6173    1.9655 C   0  0  0  0  0  0  0  0  0  0  0  0
    3.1317    0.9371    1.8070 C   0  0  0  0  0  0  0  0  0  0  0  0
    6.7968    2.0411    0.9950 H   0  0  0  0  0  0  0  0  0  0  0  0
    5.6191    2.1898    2.3050 H   0  0  0  0  0  0  0  0  0  0  0  0
    5.9274    0.5931    1.5169 H   0  0  0  0  0  0  0  0  0  0  0  0
    2.9596    2.4647   -1.2130 H   0  0  0  0  0  0  0  0  0  0  0  0
    0.5896    1.9215   -0.9486 H   0  0  0  0  0  0  0  0  0  0  0  0
   -0.8056    0.5627    2.2730 H   0  0  0  0  0  0  0  0  0  0  0  0
   -0.8264   -0.2495   -1.5185 H   0  0  0  0  0  0  0  0  0  0  0  0
   -2.6418   -2.1082   -1.4987 H   0  0  0  0  0  0  0  0  0  0  0  0
   -3.0447   -0.6516   -2.4048 H   0  0  0  0  0  0  0  0  0  0  0  0
   -3.7472   -0.9028   -0.8153 H   0  0  0  0  0  0  0  0  0  0  0  0
   -2.7684   -2.1838    1.0691 H   0  0  0  0  0  0  0  0  0  0  0  0
   -1.8957   -1.5642    2.4694 H   0  0  0  0  0  0  0  0  0  0  0  0
   -3.0526   -0.5348    1.6228 H   0  0  0  0  0  0  0  0  0  0  0  0
    0.8615   -1.4530   -0.0358 H   0  0  0  0  0  0  0  0  0  0  0  0
    0.3319   -2.0315    1.5275 H   0  0  0  0  0  0  0  0  0  0  0  0
   -1.4268   -3.4229   -0.0735 H   0  0  0  0  0  0  0  0  0  0  0  0
    0.0521   -4.3871    1.6458 H   0  0  0  0  0  0  0  0  0  0  0  0
    0.1368   -5.3216    0.1478 H   0  0  0  0  0  0  0  0  0  0  0  0
    1.4534   -4.2124    0.5726 H   0  0  0  0  0  0  0  0  0  0  0  0
   -0.4283   -2.4784   -2.2048 H   0  0  0  0  0  0  0  0  0  0  0  0
   -0.2332   -4.2266   -2.0687 H   0  0  0  0  0  0  0  0  0  0  0  0
    1.1355   -3.1549   -1.7390 H   0  0  0  0  0  0  0  0  0  0  0  0
    1.4686    0.0987    2.8714 H   0  0  0  0  0  0  0  0  0  0  0  0
    3.8184    0.6540    2.5976 H   0  0  0  0  0  0  0  0  0  0  0  0
  1  2  1  0
  2  3  1  0
  3  4  2  0
  4  5  1  0
  5  6  2  0
  6  7  1  0
  7  8  1  0
  8  9  1  0
  9 10  2  0
  9 11  1  0
 11 12  1  0
 11 13  1  0
 13 14  1  0
 13 15  1  0
 15 16  1  0
 16 17  1  0
 16 18  1  0
  6 19  1  0
 19 20  2  0
 20  3  1  0
 13  7  1  0
  1 21  1  0
  1 22  1  0
  1 23  1  0
  4 24  1  0
  5 25  1  0
  7 26  1  0
 11 27  1  0
 12 28  1  0
 12 29  1  0
 12 30  1  0
 14 31  1  0
 14 32  1  0
 14 33  1  0
 15 34  1  0
 15 35  1  0
 16 36  1  0
 17 37  1  0
 17 38  1  0
 17 39  1  0
 18 40  1  0
 18 41  1  0
 18 42  1  0
 19 43  1  0
 20 44  1  0
M  END
>  <energy_abs>  (17) 
46.2503440760844

>  <SMILES>  (17) 
COc1ccc(C2OC(=O)C(C)C2(C)CC(C)C)cc1

>  <cluster_no>  (17) 
17

>  <ccdc_id>  (17) 
33

>  <initial_conformation_id>  (17) 
188

>  <minimize_method>  (17) 
MMFF

$$$$
