
     RDKit          3D

 44 45  0  0  0  0  0  0  0  0999 V2000
    6.1538    0.7402    0.7163 C   0  0  0  0  0  0  0  0  0  0  0  0
    5.1309    1.6751    0.3991 O   0  0  0  0  0  0  0  0  0  0  0  0
    3.8417    1.2793    0.6193 C   0  0  0  0  0  0  0  0  0  0  0  0
    2.8722    2.2123    0.2628 C   0  0  0  0  0  0  0  0  0  0  0  0
    1.5136    1.9300    0.4362 C   0  0  0  0  0  0  0  0  0  0  0  0
    1.0798    0.6957    0.9543 C   0  0  0  0  0  0  0  0  0  0  0  0
   -0.4060    0.4575    1.1654 C   0  0  0  0  0  0  0  0  0  0  0  0
   -1.1808    1.2220    0.2189 O   0  0  0  0  0  0  0  0  0  0  0  0
   -2.4392    0.7066    0.1311 C   0  0  0  0  0  0  0  0  0  0  0  0
   -3.3401    1.2038   -0.5230 O   0  0  0  0  0  0  0  0  0  0  0  0
   -2.5348   -0.5271    0.9858 C   0  0  0  0  0  0  0  0  0  0  0  0
   -3.5229   -1.5593    0.4659 C   0  0  0  0  0  0  0  0  0  0  0  0
   -1.0501   -0.9497    1.1147 C   0  0  0  0  0  0  0  0  0  0  0  0
   -0.8847   -1.6915    2.4628 C   0  0  0  0  0  0  0  0  0  0  0  0
   -0.5638   -1.9119   -0.0200 C   0  0  0  0  0  0  0  0  0  0  0  0
   -0.7055   -1.5346   -1.5168 C   0  0  0  0  0  0  0  0  0  0  0  0
   -0.7341   -2.8239   -2.3542 C   0  0  0  0  0  0  0  0  0  0  0  0
    0.4250   -0.6518   -2.0442 C   0  0  0  0  0  0  0  0  0  0  0  0
    2.0706   -0.2174    1.3361 C   0  0  0  0  0  0  0  0  0  0  0  0
    3.4349    0.0641    1.1622 C   0  0  0  0  0  0  0  0  0  0  0  0
    7.1153    1.1983    0.4649 H   0  0  0  0  0  0  0  0  0  0  0  0
    6.0540   -0.1730    0.1202 H   0  0  0  0  0  0  0  0  0  0  0  0
    6.1628    0.5144    1.7878 H   0  0  0  0  0  0  0  0  0  0  0  0
    3.1722    3.1710   -0.1534 H   0  0  0  0  0  0  0  0  0  0  0  0
    0.7906    2.6930    0.1501 H   0  0  0  0  0  0  0  0  0  0  0  0
   -0.6161    0.9121    2.1459 H   0  0  0  0  0  0  0  0  0  0  0  0
   -2.9037   -0.1779    1.9613 H   0  0  0  0  0  0  0  0  0  0  0  0
   -3.3541   -1.8253   -0.5800 H   0  0  0  0  0  0  0  0  0  0  0  0
   -4.5429   -1.1620    0.5215 H   0  0  0  0  0  0  0  0  0  0  0  0
   -3.4922   -2.4738    1.0657 H   0  0  0  0  0  0  0  0  0  0  0  0
   -1.5437   -2.5658    2.5118 H   0  0  0  0  0  0  0  0  0  0  0  0
    0.1327   -2.0553    2.6194 H   0  0  0  0  0  0  0  0  0  0  0  0
   -1.1381   -1.0464    3.3117 H   0  0  0  0  0  0  0  0  0  0  0  0
   -1.1126   -2.8535    0.1287 H   0  0  0  0  0  0  0  0  0  0  0  0
    0.4823   -2.1865    0.1621 H   0  0  0  0  0  0  0  0  0  0  0  0
   -1.6509   -1.0195   -1.7021 H   0  0  0  0  0  0  0  0  0  0  0  0
    0.1909   -3.3976   -2.2310 H   0  0  0  0  0  0  0  0  0  0  0  0
   -1.5739   -3.4623   -2.0595 H   0  0  0  0  0  0  0  0  0  0  0  0
   -0.8543   -2.5968   -3.4190 H   0  0  0  0  0  0  0  0  0  0  0  0
    0.3901   -0.5851   -3.1376 H   0  0  0  0  0  0  0  0  0  0  0  0
    1.4078   -1.0469   -1.7679 H   0  0  0  0  0  0  0  0  0  0  0  0
    0.3394    0.3699   -1.6758 H   0  0  0  0  0  0  0  0  0  0  0  0
    1.8195   -1.1739    1.7785 H   0  0  0  0  0  0  0  0  0  0  0  0
    4.1517   -0.6904    1.4691 H   0  0  0  0  0  0  0  0  0  0  0  0
  1  2  1  0
  2  3  1  0
  3  4  2  0
  4  5  1  0
  5  6  2  0
  6  7  1  0
  7  8  1  0
  8  9  1  0
  9 10  2  0
  9 11  1  0
 11 12  1  0
 11 13  1  0
 13 14  1  0
 13 15  1  0
 15 16  1  0
 16 17  1  0
 16 18  1  0
  6 19  1  0
 19 20  2  0
 20  3  1  0
 13  7  1  0
  1 21  1  0
  1 22  1  0
  1 23  1  0
  4 24  1  0
  5 25  1  0
  7 26  1  0
 11 27  1  0
 12 28  1  0
 12 29  1  0
 12 30  1  0
 14 31  1  0
 14 32  1  0
 14 33  1  0
 15 34  1  0
 15 35  1  0
 16 36  1  0
 17 37  1  0
 17 38  1  0
 17 39  1  0
 18 40  1  0
 18 41  1  0
 18 42  1  0
 19 43  1  0
 20 44  1  0
M  END
>  <energy_abs>  (173) 
49.77649526127289

>  <SMILES>  (173) 
COc1ccc(C2OC(=O)C(C)C2(C)CC(C)C)cc1

>  <cluster_no>  (173) 
173

>  <ccdc_id>  (173) 
33

>  <initial_conformation_id>  (173) 
114

>  <minimize_method>  (173) 
MMFF

$$$$
