#Put Keywords Here, check Charge and Multiplicity.

 

0  1
C           6.15380         0.74020         0.71630
O           5.13090         1.67510         0.39910
C           3.84170         1.27930         0.61930
C           2.87220         2.21230         0.26280
C           1.51360         1.93000         0.43620
C           1.07980         0.69570         0.95430
C          -0.40600         0.45750         1.16540
O          -1.18080         1.22200         0.21890
C          -2.43920         0.70660         0.13110
O          -3.34010         1.20380        -0.52300
C          -2.53480        -0.52710         0.98580
C          -3.52290        -1.55930         0.46590
C          -1.05010        -0.94970         1.11470
C          -0.88470        -1.69150         2.46280
C          -0.56380        -1.91190        -0.02000
C          -0.70550        -1.53460        -1.51680
C          -0.73410        -2.82390        -2.35420
C           0.42500        -0.65180        -2.04420
C           2.07060        -0.21740         1.33610
C           3.43490         0.06410         1.16220
H           7.11530         1.19830         0.46490
H           6.05400        -0.17300         0.12020
H           6.16280         0.51440         1.78780
H           3.17220         3.17100        -0.15340
H           0.79060         2.69300         0.15010
H          -0.61610         0.91210         2.14590
H          -2.90370        -0.17790         1.96130
H          -3.35410        -1.82530        -0.58000
H          -4.54290        -1.16200         0.52150
H          -3.49220        -2.47380         1.06570
H          -1.54370        -2.56580         2.51180
H           0.13270        -2.05530         2.61940
H          -1.13810        -1.04640         3.31170
H          -1.11260        -2.85350         0.12870
H           0.48230        -2.18650         0.16210
H          -1.65090        -1.01950        -1.70210
H           0.19090        -3.39760        -2.23100
H          -1.57390        -3.46230        -2.05950
H          -0.85430        -2.59680        -3.41900
H           0.39010        -0.58510        -3.13760
H           1.40780        -1.04690        -1.76790
H           0.33940         0.36990        -1.67580
H           1.81950        -1.17390         1.77850
H           4.15170        -0.69040         1.46910

