#Put Keywords Here, check Charge and Multiplicity.

 

0  1
C           5.83800         1.30580         0.64050
O           4.80710         1.06310         1.58910
C           3.52680         1.02200         1.11320
C           3.13460         1.19790        -0.20980
C           1.77880         1.12750        -0.55840
C           0.78450         0.85840         0.39580
C          -0.67280         0.79110        -0.03360
O          -1.46320         1.50350         0.93520
C          -2.16900         0.63340         1.70620
O          -2.80670         0.96470         2.69320
C          -2.05300        -0.77420         1.17930
C          -1.34230        -1.67460         2.18370
C          -1.39790        -0.57240        -0.21370
C          -2.57290        -0.36310        -1.21400
C          -0.53120        -1.78870        -0.65450
C          -0.31710        -2.07230        -2.16130
C           0.39590        -3.42180        -2.32840
C           0.47650        -1.00170        -2.89850
C           1.19560         0.72570         1.72910
C           2.54880         0.79480         2.07930
H           5.72040         2.28890         0.17280
H           6.79230         1.30420         1.17600
H           5.87720         0.51150        -0.11220
H           3.85290         1.40180        -0.99670
H           1.51020         1.30690        -1.59680
H          -0.76070         1.37230        -0.96040
H          -3.07630        -1.15430         1.06160
H          -0.26260        -1.52010         2.20510
H          -1.71840        -1.50780         3.19900
H          -1.51580        -2.72900         1.94430
H          -2.21990        -0.04900        -2.20070
H          -3.15000        -1.28680        -1.33730
H          -3.26860         0.41170        -0.87050
H          -1.03130        -2.68810        -0.26930
H           0.44250        -1.76280        -0.15110
H          -1.29360        -2.17270        -2.64940
H           0.52390        -3.66660        -3.38830
H           1.38660        -3.40830        -1.86110
H          -0.18460        -4.22970        -1.87030
H           0.55620        -1.24950        -3.96310
H           1.49480        -0.92600        -2.50620
H          -0.00400        -0.02340        -2.83430
H           0.47550         0.59250         2.53190
H           2.83890         0.68310         3.12160

