
     RDKit          3D

 44 45  0  0  0  0  0  0  0  0999 V2000
    5.8380    1.3058    0.6405 C   0  0  0  0  0  0  0  0  0  0  0  0
    4.8071    1.0631    1.5891 O   0  0  0  0  0  0  0  0  0  0  0  0
    3.5268    1.0220    1.1132 C   0  0  0  0  0  0  0  0  0  0  0  0
    3.1346    1.1979   -0.2098 C   0  0  0  0  0  0  0  0  0  0  0  0
    1.7788    1.1275   -0.5584 C   0  0  0  0  0  0  0  0  0  0  0  0
    0.7845    0.8584    0.3958 C   0  0  0  0  0  0  0  0  0  0  0  0
   -0.6728    0.7911   -0.0336 C   0  0  0  0  0  0  0  0  0  0  0  0
   -1.4632    1.5035    0.9352 O   0  0  0  0  0  0  0  0  0  0  0  0
   -2.1690    0.6334    1.7062 C   0  0  0  0  0  0  0  0  0  0  0  0
   -2.8067    0.9647    2.6932 O   0  0  0  0  0  0  0  0  0  0  0  0
   -2.0530   -0.7742    1.1793 C   0  0  0  0  0  0  0  0  0  0  0  0
   -1.3423   -1.6746    2.1837 C   0  0  0  0  0  0  0  0  0  0  0  0
   -1.3979   -0.5724   -0.2137 C   0  0  0  0  0  0  0  0  0  0  0  0
   -2.5729   -0.3631   -1.2140 C   0  0  0  0  0  0  0  0  0  0  0  0
   -0.5312   -1.7887   -0.6545 C   0  0  0  0  0  0  0  0  0  0  0  0
   -0.3171   -2.0723   -2.1613 C   0  0  0  0  0  0  0  0  0  0  0  0
    0.3959   -3.4218   -2.3284 C   0  0  0  0  0  0  0  0  0  0  0  0
    0.4765   -1.0017   -2.8985 C   0  0  0  0  0  0  0  0  0  0  0  0
    1.1956    0.7257    1.7291 C   0  0  0  0  0  0  0  0  0  0  0  0
    2.5488    0.7948    2.0793 C   0  0  0  0  0  0  0  0  0  0  0  0
    5.7204    2.2889    0.1728 H   0  0  0  0  0  0  0  0  0  0  0  0
    6.7923    1.3042    1.1760 H   0  0  0  0  0  0  0  0  0  0  0  0
    5.8772    0.5115   -0.1122 H   0  0  0  0  0  0  0  0  0  0  0  0
    3.8529    1.4018   -0.9967 H   0  0  0  0  0  0  0  0  0  0  0  0
    1.5102    1.3069   -1.5968 H   0  0  0  0  0  0  0  0  0  0  0  0
   -0.7607    1.3723   -0.9604 H   0  0  0  0  0  0  0  0  0  0  0  0
   -3.0763   -1.1543    1.0616 H   0  0  0  0  0  0  0  0  0  0  0  0
   -0.2626   -1.5201    2.2051 H   0  0  0  0  0  0  0  0  0  0  0  0
   -1.7184   -1.5078    3.1990 H   0  0  0  0  0  0  0  0  0  0  0  0
   -1.5158   -2.7290    1.9443 H   0  0  0  0  0  0  0  0  0  0  0  0
   -2.2199   -0.0490   -2.2007 H   0  0  0  0  0  0  0  0  0  0  0  0
   -3.1500   -1.2868   -1.3373 H   0  0  0  0  0  0  0  0  0  0  0  0
   -3.2686    0.4117   -0.8705 H   0  0  0  0  0  0  0  0  0  0  0  0
   -1.0313   -2.6881   -0.2693 H   0  0  0  0  0  0  0  0  0  0  0  0
    0.4425   -1.7628   -0.1511 H   0  0  0  0  0  0  0  0  0  0  0  0
   -1.2936   -2.1727   -2.6494 H   0  0  0  0  0  0  0  0  0  0  0  0
    0.5239   -3.6666   -3.3883 H   0  0  0  0  0  0  0  0  0  0  0  0
    1.3866   -3.4083   -1.8611 H   0  0  0  0  0  0  0  0  0  0  0  0
   -0.1846   -4.2297   -1.8703 H   0  0  0  0  0  0  0  0  0  0  0  0
    0.5562   -1.2495   -3.9631 H   0  0  0  0  0  0  0  0  0  0  0  0
    1.4948   -0.9260   -2.5062 H   0  0  0  0  0  0  0  0  0  0  0  0
   -0.0040   -0.0234   -2.8343 H   0  0  0  0  0  0  0  0  0  0  0  0
    0.4755    0.5925    2.5319 H   0  0  0  0  0  0  0  0  0  0  0  0
    2.8389    0.6831    3.1216 H   0  0  0  0  0  0  0  0  0  0  0  0
  1  2  1  0
  2  3  1  0
  3  4  2  0
  4  5  1  0
  5  6  2  0
  6  7  1  0
  7  8  1  0
  8  9  1  0
  9 10  2  0
  9 11  1  0
 11 12  1  0
 11 13  1  0
 13 14  1  0
 13 15  1  0
 15 16  1  0
 16 17  1  0
 16 18  1  0
  6 19  1  0
 19 20  2  0
 20  3  1  0
 13  7  1  0
  1 21  1  0
  1 22  1  0
  1 23  1  0
  4 24  1  0
  5 25  1  0
  7 26  1  0
 11 27  1  0
 12 28  1  0
 12 29  1  0
 12 30  1  0
 14 31  1  0
 14 32  1  0
 14 33  1  0
 15 34  1  0
 15 35  1  0
 16 36  1  0
 17 37  1  0
 17 38  1  0
 17 39  1  0
 18 40  1  0
 18 41  1  0
 18 42  1  0
 19 43  1  0
 20 44  1  0
M  END
>  <energy_abs>  (174) 
50.311353139486954

>  <SMILES>  (174) 
COc1ccc(C2OC(=O)C(C)C2(C)CC(C)C)cc1

>  <cluster_no>  (174) 
174

>  <ccdc_id>  (174) 
33

>  <initial_conformation_id>  (174) 
111

>  <minimize_method>  (174) 
MMFF

$$$$
