#Put Keywords Here, check Charge and Multiplicity.

 

0  1
C           6.08950         2.00090         1.59140
O           4.81250         2.15110         2.19820
C           3.74120         1.64080         1.51940
C           3.78540         0.96490         0.30250
C           2.60460         0.49140        -0.28270
C           1.35710         0.67950         0.33710
C           0.10570         0.13000        -0.33210
O          -1.02950         0.95130        -0.00830
C          -1.83430         0.31000         0.88910
O          -2.84810         0.79530         1.36280
C          -1.25710        -1.03960         1.22380
C          -2.31120        -2.08880         1.53840
C          -0.33660        -1.30740         0.02080
C           0.82800        -2.22910         0.44510
C          -1.03370        -2.02250        -1.19250
C          -2.28640        -1.40760        -1.86830
C          -3.10710        -2.53250        -2.51920
C          -1.95330        -0.37610        -2.94980
C           1.32660         1.36810         1.55720
C           2.50740         1.83950         2.13940
H           6.35590         0.94370         1.48970
H           6.13080         2.51440         0.62510
H           6.82900         2.46860         2.24860
H           4.71970         0.78890        -0.21990
H           2.67000        -0.03170        -1.23530
H           0.26890         0.22240        -1.41100
H          -0.65330        -0.89070         2.12940
H          -1.85720        -3.07470         1.67720
H          -3.07860        -2.16480         0.76400
H          -2.83300        -1.83030         2.46690
H           1.55980        -2.33970        -0.36250
H           0.46340        -3.23140         0.69780
H           1.35280        -1.85530         1.33060
H          -0.27590        -2.18480        -1.97260
H          -1.30150        -3.03210        -0.84990
H          -2.93550        -0.93290        -1.12870
H          -3.42780        -3.26480        -1.77040
H          -2.52420        -3.05830        -3.28320
H          -4.00970        -2.13360        -2.99470
H          -1.22620        -0.77030        -3.66760
H          -2.85350        -0.09540        -3.50830
H          -1.55320         0.54700        -2.52780
H           0.38900         1.56250         2.07250
H           2.46200         2.37400         3.08580

