
     RDKit          3D

 44 45  0  0  0  0  0  0  0  0999 V2000
    6.0895    2.0009    1.5914 C   0  0  0  0  0  0  0  0  0  0  0  0
    4.8125    2.1511    2.1982 O   0  0  0  0  0  0  0  0  0  0  0  0
    3.7412    1.6408    1.5194 C   0  0  0  0  0  0  0  0  0  0  0  0
    3.7854    0.9649    0.3025 C   0  0  0  0  0  0  0  0  0  0  0  0
    2.6046    0.4914   -0.2827 C   0  0  0  0  0  0  0  0  0  0  0  0
    1.3571    0.6795    0.3371 C   0  0  0  0  0  0  0  0  0  0  0  0
    0.1057    0.1300   -0.3321 C   0  0  0  0  0  0  0  0  0  0  0  0
   -1.0295    0.9513   -0.0083 O   0  0  0  0  0  0  0  0  0  0  0  0
   -1.8343    0.3100    0.8891 C   0  0  0  0  0  0  0  0  0  0  0  0
   -2.8481    0.7953    1.3628 O   0  0  0  0  0  0  0  0  0  0  0  0
   -1.2571   -1.0396    1.2238 C   0  0  0  0  0  0  0  0  0  0  0  0
   -2.3112   -2.0888    1.5384 C   0  0  0  0  0  0  0  0  0  0  0  0
   -0.3366   -1.3074    0.0208 C   0  0  0  0  0  0  0  0  0  0  0  0
    0.8280   -2.2291    0.4451 C   0  0  0  0  0  0  0  0  0  0  0  0
   -1.0337   -2.0225   -1.1925 C   0  0  0  0  0  0  0  0  0  0  0  0
   -2.2864   -1.4076   -1.8683 C   0  0  0  0  0  0  0  0  0  0  0  0
   -3.1071   -2.5325   -2.5192 C   0  0  0  0  0  0  0  0  0  0  0  0
   -1.9533   -0.3761   -2.9498 C   0  0  0  0  0  0  0  0  0  0  0  0
    1.3266    1.3681    1.5572 C   0  0  0  0  0  0  0  0  0  0  0  0
    2.5074    1.8395    2.1394 C   0  0  0  0  0  0  0  0  0  0  0  0
    6.3559    0.9437    1.4897 H   0  0  0  0  0  0  0  0  0  0  0  0
    6.1308    2.5144    0.6251 H   0  0  0  0  0  0  0  0  0  0  0  0
    6.8290    2.4686    2.2486 H   0  0  0  0  0  0  0  0  0  0  0  0
    4.7197    0.7889   -0.2199 H   0  0  0  0  0  0  0  0  0  0  0  0
    2.6700   -0.0317   -1.2353 H   0  0  0  0  0  0  0  0  0  0  0  0
    0.2689    0.2224   -1.4110 H   0  0  0  0  0  0  0  0  0  0  0  0
   -0.6533   -0.8907    2.1294 H   0  0  0  0  0  0  0  0  0  0  0  0
   -1.8572   -3.0747    1.6772 H   0  0  0  0  0  0  0  0  0  0  0  0
   -3.0786   -2.1648    0.7640 H   0  0  0  0  0  0  0  0  0  0  0  0
   -2.8330   -1.8303    2.4669 H   0  0  0  0  0  0  0  0  0  0  0  0
    1.5598   -2.3397   -0.3625 H   0  0  0  0  0  0  0  0  0  0  0  0
    0.4634   -3.2314    0.6978 H   0  0  0  0  0  0  0  0  0  0  0  0
    1.3528   -1.8553    1.3306 H   0  0  0  0  0  0  0  0  0  0  0  0
   -0.2759   -2.1848   -1.9726 H   0  0  0  0  0  0  0  0  0  0  0  0
   -1.3015   -3.0321   -0.8499 H   0  0  0  0  0  0  0  0  0  0  0  0
   -2.9355   -0.9329   -1.1287 H   0  0  0  0  0  0  0  0  0  0  0  0
   -3.4278   -3.2648   -1.7704 H   0  0  0  0  0  0  0  0  0  0  0  0
   -2.5242   -3.0583   -3.2832 H   0  0  0  0  0  0  0  0  0  0  0  0
   -4.0097   -2.1336   -2.9947 H   0  0  0  0  0  0  0  0  0  0  0  0
   -1.2262   -0.7703   -3.6676 H   0  0  0  0  0  0  0  0  0  0  0  0
   -2.8535   -0.0954   -3.5083 H   0  0  0  0  0  0  0  0  0  0  0  0
   -1.5532    0.5470   -2.5278 H   0  0  0  0  0  0  0  0  0  0  0  0
    0.3890    1.5625    2.0725 H   0  0  0  0  0  0  0  0  0  0  0  0
    2.4620    2.3740    3.0858 H   0  0  0  0  0  0  0  0  0  0  0  0
  1  2  1  0
  2  3  1  0
  3  4  2  0
  4  5  1  0
  5  6  2  0
  6  7  1  0
  7  8  1  0
  8  9  1  0
  9 10  2  0
  9 11  1  0
 11 12  1  0
 11 13  1  0
 13 14  1  0
 13 15  1  0
 15 16  1  0
 16 17  1  0
 16 18  1  0
  6 19  1  0
 19 20  2  0
 20  3  1  0
 13  7  1  0
  1 21  1  0
  1 22  1  0
  1 23  1  0
  4 24  1  0
  5 25  1  0
  7 26  1  0
 11 27  1  0
 12 28  1  0
 12 29  1  0
 12 30  1  0
 14 31  1  0
 14 32  1  0
 14 33  1  0
 15 34  1  0
 15 35  1  0
 16 36  1  0
 17 37  1  0
 17 38  1  0
 17 39  1  0
 18 40  1  0
 18 41  1  0
 18 42  1  0
 19 43  1  0
 20 44  1  0
M  END
>  <energy_abs>  (175) 
47.15312485843137

>  <SMILES>  (175) 
COc1ccc(C2OC(=O)C(C)C2(C)CC(C)C)cc1

>  <cluster_no>  (175) 
175

>  <ccdc_id>  (175) 
33

>  <initial_conformation_id>  (175) 
110

>  <minimize_method>  (175) 
MMFF

$$$$
