
     RDKit          3D

 44 45  0  0  0  0  0  0  0  0999 V2000
    6.0111    1.4547    1.3002 C   0  0  0  0  0  0  0  0  0  0  0  0
    4.8052    1.8147    1.9617 O   0  0  0  0  0  0  0  0  0  0  0  0
    3.6360    1.4147    1.3775 C   0  0  0  0  0  0  0  0  0  0  0  0
    2.4805    1.8029    2.0546 C   0  0  0  0  0  0  0  0  0  0  0  0
    1.2144    1.4598    1.5693 C   0  0  0  0  0  0  0  0  0  0  0  0
    1.0746    0.7030    0.3975 C   0  0  0  0  0  0  0  0  0  0  0  0
   -0.2814    0.3137   -0.1753 C   0  0  0  0  0  0  0  0  0  0  0  0
   -1.3212    1.1346    0.3811 O   0  0  0  0  0  0  0  0  0  0  0  0
   -2.0292    0.4347    1.3101 C   0  0  0  0  0  0  0  0  0  0  0  0
   -2.8848    0.9304    2.0259 O   0  0  0  0  0  0  0  0  0  0  0  0
   -1.6026   -1.0109    1.3352 C   0  0  0  0  0  0  0  0  0  0  0  0
   -0.8939   -1.3172    2.6493 C   0  0  0  0  0  0  0  0  0  0  0  0
   -0.7896   -1.1356    0.0170 C   0  0  0  0  0  0  0  0  0  0  0  0
    0.2937   -2.2209    0.1175 C   0  0  0  0  0  0  0  0  0  0  0  0
   -1.8304   -1.5325   -1.1042 C   0  0  0  0  0  0  0  0  0  0  0  0
   -1.5294   -1.2698   -2.5991 C   0  0  0  0  0  0  0  0  0  0  0  0
   -0.2427   -1.9018   -3.1163 C   0  0  0  0  0  0  0  0  0  0  0  0
   -2.7097   -1.7765   -3.4415 C   0  0  0  0  0  0  0  0  0  0  0  0
    2.2463    0.3382   -0.2874 C   0  0  0  0  0  0  0  0  0  0  0  0
    3.5137    0.6832    0.1993 C   0  0  0  0  0  0  0  0  0  0  0  0
    6.8456    1.8473    1.8892 H   0  0  0  0  0  0  0  0  0  0  0  0
    6.1232    0.3667    1.2482 H   0  0  0  0  0  0  0  0  0  0  0  0
    6.0651    1.9063    0.3041 H   0  0  0  0  0  0  0  0  0  0  0  0
    2.5634    2.3866    2.9687 H   0  0  0  0  0  0  0  0  0  0  0  0
    0.3445    1.8041    2.1250 H   0  0  0  0  0  0  0  0  0  0  0  0
   -0.2331    0.5783   -1.2350 H   0  0  0  0  0  0  0  0  0  0  0  0
   -2.5061   -1.6315    1.2858 H   0  0  0  0  0  0  0  0  0  0  0  0
    0.0273   -0.7445    2.7755 H   0  0  0  0  0  0  0  0  0  0  0  0
   -0.6491   -2.3815    2.7231 H   0  0  0  0  0  0  0  0  0  0  0  0
   -1.5401   -1.0720    3.4999 H   0  0  0  0  0  0  0  0  0  0  0  0
    0.9025   -2.2952   -0.7835 H   0  0  0  0  0  0  0  0  0  0  0  0
    0.9876   -2.0431    0.9451 H   0  0  0  0  0  0  0  0  0  0  0  0
   -0.1584   -3.2050    0.2874 H   0  0  0  0  0  0  0  0  0  0  0  0
   -2.0705   -2.5983   -0.9793 H   0  0  0  0  0  0  0  0  0  0  0  0
   -2.7742   -1.0063   -0.8982 H   0  0  0  0  0  0  0  0  0  0  0  0
   -1.4721   -0.1885   -2.7683 H   0  0  0  0  0  0  0  0  0  0  0  0
   -0.1752   -1.8149   -4.2066 H   0  0  0  0  0  0  0  0  0  0  0  0
    0.6354   -1.3939   -2.7108 H   0  0  0  0  0  0  0  0  0  0  0  0
   -0.1891   -2.9655   -2.8629 H   0  0  0  0  0  0  0  0  0  0  0  0
   -2.5617   -1.5423   -4.5012 H   0  0  0  0  0  0  0  0  0  0  0  0
   -2.8279   -2.8615   -3.3476 H   0  0  0  0  0  0  0  0  0  0  0  0
   -3.6460   -1.3034   -3.1267 H   0  0  0  0  0  0  0  0  0  0  0  0
    2.1865   -0.2199   -1.2193 H   0  0  0  0  0  0  0  0  0  0  0  0
    4.3816    0.3684   -0.3704 H   0  0  0  0  0  0  0  0  0  0  0  0
  1  2  1  0
  2  3  1  0
  3  4  2  0
  4  5  1  0
  5  6  2  0
  6  7  1  0
  7  8  1  0
  8  9  1  0
  9 10  2  0
  9 11  1  0
 11 12  1  0
 11 13  1  0
 13 14  1  0
 13 15  1  0
 15 16  1  0
 16 17  1  0
 16 18  1  0
  6 19  1  0
 19 20  2  0
 20  3  1  0
 13  7  1  0
  1 21  1  0
  1 22  1  0
  1 23  1  0
  4 24  1  0
  5 25  1  0
  7 26  1  0
 11 27  1  0
 12 28  1  0
 12 29  1  0
 12 30  1  0
 14 31  1  0
 14 32  1  0
 14 33  1  0
 15 34  1  0
 15 35  1  0
 16 36  1  0
 17 37  1  0
 17 38  1  0
 17 39  1  0
 18 40  1  0
 18 41  1  0
 18 42  1  0
 19 43  1  0
 20 44  1  0
M  END
>  <energy_abs>  (176) 
48.51254465238941

>  <SMILES>  (176) 
COc1ccc(C2OC(=O)C(C)C2(C)CC(C)C)cc1

>  <cluster_no>  (176) 
176

>  <ccdc_id>  (176) 
33

>  <initial_conformation_id>  (176) 
109

>  <minimize_method>  (176) 
MMFF

$$$$
