
     RDKit          3D

 44 45  0  0  0  0  0  0  0  0999 V2000
    6.0647    0.5555    1.2480 C   0  0  0  0  0  0  0  0  0  0  0  0
    5.1615    1.4096    0.5572 O   0  0  0  0  0  0  0  0  0  0  0  0
    3.8289    1.1435    0.7029 C   0  0  0  0  0  0  0  0  0  0  0  0
    3.2716    0.1357    1.4831 C   0  0  0  0  0  0  0  0  0  0  0  0
    1.8803   -0.0241    1.5402 C   0  0  0  0  0  0  0  0  0  0  0  0
    1.0128    0.7995    0.8036 C   0  0  0  0  0  0  0  0  0  0  0  0
   -0.4967    0.6445    0.8887 C   0  0  0  0  0  0  0  0  0  0  0  0
   -0.8690   -0.4416    1.7514 O   0  0  0  0  0  0  0  0  0  0  0  0
   -2.0966   -0.9122    1.4038 C   0  0  0  0  0  0  0  0  0  0  0  0
   -2.6902   -1.7861    2.0147 O   0  0  0  0  0  0  0  0  0  0  0  0
   -2.6198   -0.1824    0.1957 C   0  0  0  0  0  0  0  0  0  0  0  0
   -3.6911    0.7978    0.6724 C   0  0  0  0  0  0  0  0  0  0  0  0
   -1.3272    0.4238   -0.3991 C   0  0  0  0  0  0  0  0  0  0  0  0
   -1.6086    1.7641   -1.1180 C   0  0  0  0  0  0  0  0  0  0  0  0
   -0.6946   -0.5258   -1.4801 C   0  0  0  0  0  0  0  0  0  0  0  0
   -0.6174   -2.0607   -1.2828 C   0  0  0  0  0  0  0  0  0  0  0  0
   -0.4616   -2.7307   -2.6589 C   0  0  0  0  0  0  0  0  0  0  0  0
    0.5414   -2.5189   -0.4023 C   0  0  0  0  0  0  0  0  0  0  0  0
    1.5915    1.8335    0.0549 C   0  0  0  0  0  0  0  0  0  0  0  0
    2.9805    1.9944   -0.0029 C   0  0  0  0  0  0  0  0  0  0  0  0
    7.0815    0.8888    1.0185 H   0  0  0  0  0  0  0  0  0  0  0  0
    5.9269    0.6298    2.3318 H   0  0  0  0  0  0  0  0  0  0  0  0
    5.9689   -0.4805    0.9065 H   0  0  0  0  0  0  0  0  0  0  0  0
    3.8841   -0.5426    2.0676 H   0  0  0  0  0  0  0  0  0  0  0  0
    1.4843   -0.8128    2.1785 H   0  0  0  0  0  0  0  0  0  0  0  0
   -0.8465    1.5483    1.4084 H   0  0  0  0  0  0  0  0  0  0  0  0
   -3.0762   -0.8954   -0.4981 H   0  0  0  0  0  0  0  0  0  0  0  0
   -4.4987    0.2633    1.1858 H   0  0  0  0  0  0  0  0  0  0  0  0
   -4.1401    1.3356   -0.1681 H   0  0  0  0  0  0  0  0  0  0  0  0
   -3.2919    1.5310    1.3813 H   0  0  0  0  0  0  0  0  0  0  0  0
   -0.7443    2.1056   -1.6949 H   0  0  0  0  0  0  0  0  0  0  0  0
   -1.8745    2.5625   -0.4172 H   0  0  0  0  0  0  0  0  0  0  0  0
   -2.4342    1.6569   -1.8315 H   0  0  0  0  0  0  0  0  0  0  0  0
    0.3032   -0.1549   -1.7489 H   0  0  0  0  0  0  0  0  0  0  0  0
   -1.2988   -0.3741   -2.3876 H   0  0  0  0  0  0  0  0  0  0  0  0
   -1.5503   -2.4419   -0.8571 H   0  0  0  0  0  0  0  0  0  0  0  0
   -1.3090   -2.4893   -3.3096 H   0  0  0  0  0  0  0  0  0  0  0  0
   -0.4248   -3.8212   -2.5615 H   0  0  0  0  0  0  0  0  0  0  0  0
    0.4565   -2.4027   -3.1585 H   0  0  0  0  0  0  0  0  0  0  0  0
    0.6560   -3.6081   -0.4444 H   0  0  0  0  0  0  0  0  0  0  0  0
    1.4888   -2.0745   -0.7238 H   0  0  0  0  0  0  0  0  0  0  0  0
    0.3717   -2.2719    0.6445 H   0  0  0  0  0  0  0  0  0  0  0  0
    0.9794    2.5489   -0.4844 H   0  0  0  0  0  0  0  0  0  0  0  0
    3.4040    2.7996   -0.5988 H   0  0  0  0  0  0  0  0  0  0  0  0
  1  2  1  0
  2  3  1  0
  3  4  2  0
  4  5  1  0
  5  6  2  0
  6  7  1  0
  7  8  1  0
  8  9  1  0
  9 10  2  0
  9 11  1  0
 11 12  1  0
 11 13  1  0
 13 14  1  0
 13 15  1  0
 15 16  1  0
 16 17  1  0
 16 18  1  0
  6 19  1  0
 19 20  2  0
 20  3  1  0
 13  7  1  0
  1 21  1  0
  1 22  1  0
  1 23  1  0
  4 24  1  0
  5 25  1  0
  7 26  1  0
 11 27  1  0
 12 28  1  0
 12 29  1  0
 12 30  1  0
 14 31  1  0
 14 32  1  0
 14 33  1  0
 15 34  1  0
 15 35  1  0
 16 36  1  0
 17 37  1  0
 17 38  1  0
 17 39  1  0
 18 40  1  0
 18 41  1  0
 18 42  1  0
 19 43  1  0
 20 44  1  0
M  END
>  <energy_abs>  (177) 
49.039749393135274

>  <SMILES>  (177) 
COc1ccc(C2OC(=O)C(C)C2(C)CC(C)C)cc1

>  <cluster_no>  (177) 
177

>  <ccdc_id>  (177) 
33

>  <initial_conformation_id>  (177) 
108

>  <minimize_method>  (177) 
MMFF

$$$$
