#Put Keywords Here, check Charge and Multiplicity.

 

0  1
C           6.06470         0.55550         1.24800
O           5.16150         1.40960         0.55720
C           3.82890         1.14350         0.70290
C           3.27160         0.13570         1.48310
C           1.88030        -0.02410         1.54020
C           1.01280         0.79950         0.80360
C          -0.49670         0.64450         0.88870
O          -0.86900        -0.44160         1.75140
C          -2.09660        -0.91220         1.40380
O          -2.69020        -1.78610         2.01470
C          -2.61980        -0.18240         0.19570
C          -3.69110         0.79780         0.67240
C          -1.32720         0.42380        -0.39910
C          -1.60860         1.76410        -1.11800
C          -0.69460        -0.52580        -1.48010
C          -0.61740        -2.06070        -1.28280
C          -0.46160        -2.73070        -2.65890
C           0.54140        -2.51890        -0.40230
C           1.59150         1.83350         0.05490
C           2.98050         1.99440        -0.00290
H           7.08150         0.88880         1.01850
H           5.92690         0.62980         2.33180
H           5.96890        -0.48050         0.90650
H           3.88410        -0.54260         2.06760
H           1.48430        -0.81280         2.17850
H          -0.84650         1.54830         1.40840
H          -3.07620        -0.89540        -0.49810
H          -4.49870         0.26330         1.18580
H          -4.14010         1.33560        -0.16810
H          -3.29190         1.53100         1.38130
H          -0.74430         2.10560        -1.69490
H          -1.87450         2.56250        -0.41720
H          -2.43420         1.65690        -1.83150
H           0.30320        -0.15490        -1.74890
H          -1.29880        -0.37410        -2.38760
H          -1.55030        -2.44190        -0.85710
H          -1.30900        -2.48930        -3.30960
H          -0.42480        -3.82120        -2.56150
H           0.45650        -2.40270        -3.15850
H           0.65600        -3.60810        -0.44440
H           1.48880        -2.07450        -0.72380
H           0.37170        -2.27190         0.64450
H           0.97940         2.54890        -0.48440
H           3.40400         2.79960        -0.59880

