#Put Keywords Here, check Charge and Multiplicity.

 

0  1
C           5.87370         1.76980         0.04010
O           5.08290         1.15950         1.05180
C           3.73840         1.07590         0.81920
C           3.00250         0.48540         1.84570
C           1.61700         0.33410         1.73670
C           0.93440         0.75430         0.58600
C          -0.56650         0.60540         0.44670
O          -1.16850         1.04930         1.67740
C          -2.37620         0.44350         1.84110
O          -3.13560         0.67020         2.76800
C          -2.62930        -0.49810         0.69330
C          -3.47300        -1.69760         1.10070
C          -1.18890        -0.78800         0.17410
C          -0.55910        -1.92900         1.00260
C          -1.28780        -1.17660        -1.33170
C          -0.03980        -1.17790        -2.23870
C          -0.47260        -1.50820        -3.67610
C           1.05560        -2.15380        -1.82100
C           1.68240         1.37460        -0.42650
C           3.07090         1.52670        -0.31700
H           5.58370         2.81480        -0.11110
H           5.82140         1.20480        -0.89650
H           6.91470         1.75900         0.37740
H           3.51010         0.14680         2.74580
H           1.07600        -0.10650         2.57150
H          -0.90830         1.31640        -0.31920
H          -3.19150         0.08450        -0.04950
H          -3.07780        -2.20080         1.98910
H          -4.48980        -1.37510         1.35220
H          -3.54760        -2.42520         0.28710
H           0.50720        -2.05230         0.81510
H          -0.67150        -1.75960         2.07930
H          -1.03020        -2.89170         0.77390
H          -1.76270        -2.16550        -1.40030
H          -2.00260        -0.48680        -1.80340
H           0.38070        -0.17030        -2.26910
H          -1.22720        -0.79780        -4.03060
H          -0.89640        -2.51620        -3.74160
H           0.37910        -1.45280        -4.36260
H           0.64590        -3.14440        -1.59860
H           1.80070        -2.27080        -2.61600
H           1.59920        -1.79190        -0.94630
H           1.19080         1.75890        -1.31800
H           3.59650         2.00770        -1.13500

