#Put Keywords Here, check Charge and Multiplicity.

 

0  1
C           5.46530         2.11120         2.66770
O           5.16670         1.53370         1.40290
C           3.84840         1.29970         1.12710
C           2.77310         1.55330         1.97530
C           1.46450         1.26280         1.56620
C           1.20530         0.70840         0.30380
C          -0.19820         0.36800        -0.17910
O          -1.17770         1.18600         0.48700
C          -1.80570         0.46030         1.45890
O          -2.64270         0.91920         2.21810
C          -1.27050        -0.94930         1.47010
C          -2.31390        -1.97170         1.89710
C          -0.70270        -1.07990         0.03400
C           0.38370        -2.16890         0.02310
C          -1.85320        -1.44740        -0.97270
C          -1.68110        -1.18590        -2.48850
C          -0.45830        -1.84510        -3.11600
C          -2.94230        -1.66390        -3.22320
C           2.29770         0.47030        -0.54510
C           3.60200         0.75890        -0.13430
H           6.55020         2.24130         2.72790
H           5.16380         1.44800         3.48530
H           5.00530         3.09970         2.76930
H           2.91220         1.98250         2.96220
H           0.65390         1.49340         2.25420
H          -0.23660         0.65550        -1.23330
H          -0.45570        -0.96580         2.20590
H          -3.25460        -1.86530         1.34790
H          -2.55740        -1.83880         2.95740
H          -1.94420        -2.99310         1.76680
H          -0.05840        -3.16660         0.12270
H           1.08340        -2.05230         0.85860
H           0.97880        -2.16330        -0.89060
H          -2.10560        -2.50830        -0.83550
H          -2.75680        -0.89450        -0.68030
H          -1.61400        -0.10560        -2.66050
H          -0.49050        -1.76960        -4.20870
H          -0.39800        -2.90690        -2.85630
H           0.46140        -1.34800        -2.79890
H          -3.07490        -2.74650        -3.12170
H          -2.88430        -1.42840        -4.29130
H          -3.83630        -1.17250        -2.82480
H           2.14620         0.05700        -1.53990
H           4.43420         0.56380        -0.80660

