
     RDKit          3D

 44 45  0  0  0  0  0  0  0  0999 V2000
    5.4653    2.1112    2.6677 C   0  0  0  0  0  0  0  0  0  0  0  0
    5.1667    1.5337    1.4029 O   0  0  0  0  0  0  0  0  0  0  0  0
    3.8484    1.2997    1.1271 C   0  0  0  0  0  0  0  0  0  0  0  0
    2.7731    1.5533    1.9753 C   0  0  0  0  0  0  0  0  0  0  0  0
    1.4645    1.2628    1.5662 C   0  0  0  0  0  0  0  0  0  0  0  0
    1.2053    0.7084    0.3038 C   0  0  0  0  0  0  0  0  0  0  0  0
   -0.1982    0.3680   -0.1791 C   0  0  0  0  0  0  0  0  0  0  0  0
   -1.1777    1.1860    0.4870 O   0  0  0  0  0  0  0  0  0  0  0  0
   -1.8057    0.4603    1.4589 C   0  0  0  0  0  0  0  0  0  0  0  0
   -2.6427    0.9192    2.2181 O   0  0  0  0  0  0  0  0  0  0  0  0
   -1.2705   -0.9493    1.4701 C   0  0  0  0  0  0  0  0  0  0  0  0
   -2.3139   -1.9717    1.8971 C   0  0  0  0  0  0  0  0  0  0  0  0
   -0.7027   -1.0799    0.0340 C   0  0  0  0  0  0  0  0  0  0  0  0
    0.3837   -2.1689    0.0231 C   0  0  0  0  0  0  0  0  0  0  0  0
   -1.8532   -1.4474   -0.9727 C   0  0  0  0  0  0  0  0  0  0  0  0
   -1.6811   -1.1859   -2.4885 C   0  0  0  0  0  0  0  0  0  0  0  0
   -0.4583   -1.8451   -3.1160 C   0  0  0  0  0  0  0  0  0  0  0  0
   -2.9423   -1.6639   -3.2232 C   0  0  0  0  0  0  0  0  0  0  0  0
    2.2977    0.4703   -0.5451 C   0  0  0  0  0  0  0  0  0  0  0  0
    3.6020    0.7589   -0.1343 C   0  0  0  0  0  0  0  0  0  0  0  0
    6.5502    2.2413    2.7279 H   0  0  0  0  0  0  0  0  0  0  0  0
    5.1638    1.4480    3.4853 H   0  0  0  0  0  0  0  0  0  0  0  0
    5.0053    3.0997    2.7693 H   0  0  0  0  0  0  0  0  0  0  0  0
    2.9122    1.9825    2.9622 H   0  0  0  0  0  0  0  0  0  0  0  0
    0.6539    1.4934    2.2542 H   0  0  0  0  0  0  0  0  0  0  0  0
   -0.2366    0.6555   -1.2333 H   0  0  0  0  0  0  0  0  0  0  0  0
   -0.4557   -0.9658    2.2059 H   0  0  0  0  0  0  0  0  0  0  0  0
   -3.2546   -1.8653    1.3479 H   0  0  0  0  0  0  0  0  0  0  0  0
   -2.5574   -1.8388    2.9574 H   0  0  0  0  0  0  0  0  0  0  0  0
   -1.9442   -2.9931    1.7668 H   0  0  0  0  0  0  0  0  0  0  0  0
   -0.0584   -3.1666    0.1227 H   0  0  0  0  0  0  0  0  0  0  0  0
    1.0834   -2.0523    0.8586 H   0  0  0  0  0  0  0  0  0  0  0  0
    0.9788   -2.1633   -0.8906 H   0  0  0  0  0  0  0  0  0  0  0  0
   -2.1056   -2.5083   -0.8355 H   0  0  0  0  0  0  0  0  0  0  0  0
   -2.7568   -0.8945   -0.6803 H   0  0  0  0  0  0  0  0  0  0  0  0
   -1.6140   -0.1056   -2.6605 H   0  0  0  0  0  0  0  0  0  0  0  0
   -0.4905   -1.7696   -4.2087 H   0  0  0  0  0  0  0  0  0  0  0  0
   -0.3980   -2.9069   -2.8563 H   0  0  0  0  0  0  0  0  0  0  0  0
    0.4614   -1.3480   -2.7989 H   0  0  0  0  0  0  0  0  0  0  0  0
   -3.0749   -2.7465   -3.1217 H   0  0  0  0  0  0  0  0  0  0  0  0
   -2.8843   -1.4284   -4.2913 H   0  0  0  0  0  0  0  0  0  0  0  0
   -3.8363   -1.1725   -2.8248 H   0  0  0  0  0  0  0  0  0  0  0  0
    2.1462    0.0570   -1.5399 H   0  0  0  0  0  0  0  0  0  0  0  0
    4.4342    0.5638   -0.8066 H   0  0  0  0  0  0  0  0  0  0  0  0
  1  2  1  0
  2  3  1  0
  3  4  2  0
  4  5  1  0
  5  6  2  0
  6  7  1  0
  7  8  1  0
  8  9  1  0
  9 10  2  0
  9 11  1  0
 11 12  1  0
 11 13  1  0
 13 14  1  0
 13 15  1  0
 15 16  1  0
 16 17  1  0
 16 18  1  0
  6 19  1  0
 19 20  2  0
 20  3  1  0
 13  7  1  0
  1 21  1  0
  1 22  1  0
  1 23  1  0
  4 24  1  0
  5 25  1  0
  7 26  1  0
 11 27  1  0
 12 28  1  0
 12 29  1  0
 12 30  1  0
 14 31  1  0
 14 32  1  0
 14 33  1  0
 15 34  1  0
 15 35  1  0
 16 36  1  0
 17 37  1  0
 17 38  1  0
 17 39  1  0
 18 40  1  0
 18 41  1  0
 18 42  1  0
 19 43  1  0
 20 44  1  0
M  END
>  <energy_abs>  (181) 
45.8078354302709

>  <SMILES>  (181) 
COc1ccc(C2OC(=O)C(C)C2(C)CC(C)C)cc1

>  <cluster_no>  (181) 
181

>  <ccdc_id>  (181) 
33

>  <initial_conformation_id>  (181) 
103

>  <minimize_method>  (181) 
MMFF

$$$$
