%NProcShared=1
%Mem=10GB

#p B3LYP/6-31G* opt freq

test

0  1
C           5.86220         1.45880         0.26730
O           4.94340         1.00980         1.25510
C           3.62070         1.00060         0.91020
C           2.75580         0.57700         1.91880
C           1.37520         0.51560         1.70280
C           0.82750         0.86850         0.46220
C          -0.66220         0.80850         0.17130
O          -1.38460         1.40210         1.26570
C          -2.01980         0.43830         1.99140
O          -2.67180         0.66370         2.99770
C          -1.75930        -0.92120         1.39260
C          -2.95340        -1.85300         1.54790
C          -1.33950        -0.56910        -0.05090
C          -2.58310        -0.35470        -0.94800
C          -0.43090        -1.68700        -0.63690
C           0.08130        -1.48620        -2.08240
C           1.50650        -2.03760        -2.21640
C          -0.80500        -2.19510        -3.11300
C           1.70770         1.30900        -0.54070
C           3.08980         1.37150        -0.32210
H           6.86650         1.41320         0.69940
H           5.66630         2.49970        -0.01060
H           5.84780         0.80510        -0.61110
H           3.15950         0.29880         2.88980
H           0.74540         0.20230         2.53070
H          -0.85420         1.45720        -0.69300
H          -0.91290        -1.35330         1.94030
H          -3.09820        -2.10690         2.60420
H          -3.88630        -1.39180         1.20760
H          -2.80270        -2.78750         0.99950
H          -2.30700         0.08600        -1.91180
H          -3.30560         0.32930        -0.48820
H          -3.10160        -1.29860        -1.14680
H          -0.96860        -2.64330        -0.58440
H           0.42750        -1.81620         0.03490
H           0.10950        -0.41990        -2.32870
H           1.89050        -1.88130        -3.23020
H           2.19030        -1.53770        -1.52370
H           1.53780        -3.11190        -2.00370
H          -0.41270        -2.04570        -4.12500
H          -1.82930        -1.81720        -3.10480
H          -0.84460        -3.27410        -2.92700
H           1.32500         1.61170        -1.51390
H           3.71930         1.71550        -1.13580

