
     RDKit          3D

 44 45  0  0  0  0  0  0  0  0999 V2000
    5.4487    3.2938    0.6533 C   0  0  0  0  0  0  0  0  0  0  0  0
    5.2086    1.8953    0.5585 O   0  0  0  0  0  0  0  0  0  0  0  0
    3.9188    1.4776    0.7354 C   0  0  0  0  0  0  0  0  0  0  0  0
    3.7361    0.0964    0.6585 C   0  0  0  0  0  0  0  0  0  0  0  0
    2.4676   -0.4673    0.8203 C   0  0  0  0  0  0  0  0  0  0  0  0
    1.3494    0.3440    1.0578 C   0  0  0  0  0  0  0  0  0  0  0  0
   -0.0212   -0.2827    1.2188 C   0  0  0  0  0  0  0  0  0  0  0  0
   -0.8567    0.5363    2.0440 O   0  0  0  0  0  0  0  0  0  0  0  0
   -2.1583    0.2717    1.7525 C   0  0  0  0  0  0  0  0  0  0  0  0
   -3.0989    0.7237    2.3853 O   0  0  0  0  0  0  0  0  0  0  0  0
   -2.2541   -0.6608    0.5655 C   0  0  0  0  0  0  0  0  0  0  0  0
   -3.4503   -0.2753   -0.2974 C   0  0  0  0  0  0  0  0  0  0  0  0
   -0.8512   -0.5443   -0.0692 C   0  0  0  0  0  0  0  0  0  0  0  0
   -0.7605    0.6408   -1.0581 C   0  0  0  0  0  0  0  0  0  0  0  0
   -0.3427   -1.8485   -0.7537 C   0  0  0  0  0  0  0  0  0  0  0  0
   -1.1594   -2.4057   -1.9414 C   0  0  0  0  0  0  0  0  0  0  0  0
   -2.1599   -3.4760   -1.4948 C   0  0  0  0  0  0  0  0  0  0  0  0
   -0.2159   -3.0251   -2.9806 C   0  0  0  0  0  0  0  0  0  0  0  0
    1.5441    1.7314    1.1394 C   0  0  0  0  0  0  0  0  0  0  0  0
    2.8163    2.2941    0.9784 C   0  0  0  0  0  0  0  0  0  0  0  0
    6.5192    3.4602    0.4992 H   0  0  0  0  0  0  0  0  0  0  0  0
    5.1930    3.6721    1.6486 H   0  0  0  0  0  0  0  0  0  0  0  0
    4.9110    3.8403   -0.1285 H   0  0  0  0  0  0  0  0  0  0  0  0
    4.5923   -0.5481    0.4741 H   0  0  0  0  0  0  0  0  0  0  0  0
    2.3667   -1.5488    0.7622 H   0  0  0  0  0  0  0  0  0  0  0  0
    0.1143   -1.2160    1.7850 H   0  0  0  0  0  0  0  0  0  0  0  0
   -2.3999   -1.6673    0.9767 H   0  0  0  0  0  0  0  0  0  0  0  0
   -3.4833   -0.8344   -1.2342 H   0  0  0  0  0  0  0  0  0  0  0  0
   -3.4584    0.7945   -0.5335 H   0  0  0  0  0  0  0  0  0  0  0  0
   -4.3832   -0.4824    0.2397 H   0  0  0  0  0  0  0  0  0  0  0  0
   -1.0213    1.5903   -0.5777 H   0  0  0  0  0  0  0  0  0  0  0  0
    0.2502    0.7415   -1.4687 H   0  0  0  0  0  0  0  0  0  0  0  0
   -1.4320    0.5167   -1.9128 H   0  0  0  0  0  0  0  0  0  0  0  0
   -0.2376   -2.6389    0.0019 H   0  0  0  0  0  0  0  0  0  0  0  0
    0.6780   -1.6489   -1.1052 H   0  0  0  0  0  0  0  0  0  0  0  0
   -1.7049   -1.6027   -2.4446 H   0  0  0  0  0  0  0  0  0  0  0  0
   -2.8764   -3.0899   -0.7672 H   0  0  0  0  0  0  0  0  0  0  0  0
   -1.6489   -4.3312   -1.0388 H   0  0  0  0  0  0  0  0  0  0  0  0
   -2.7327   -3.8484   -2.3512 H   0  0  0  0  0  0  0  0  0  0  0  0
    0.4762   -2.2725   -3.3735 H   0  0  0  0  0  0  0  0  0  0  0  0
    0.3757   -3.8385   -2.5467 H   0  0  0  0  0  0  0  0  0  0  0  0
   -0.7801   -3.4295   -3.8278 H   0  0  0  0  0  0  0  0  0  0  0  0
    0.7022    2.3940    1.3334 H   0  0  0  0  0  0  0  0  0  0  0  0
    2.9071    3.3726    1.0517 H   0  0  0  0  0  0  0  0  0  0  0  0
  1  2  1  0
  2  3  1  0
  3  4  2  0
  4  5  1  0
  5  6  2  0
  6  7  1  0
  7  8  1  0
  8  9  1  0
  9 10  2  0
  9 11  1  0
 11 12  1  0
 11 13  1  0
 13 14  1  0
 13 15  1  0
 15 16  1  0
 16 17  1  0
 16 18  1  0
  6 19  1  0
 19 20  2  0
 20  3  1  0
 13  7  1  0
  1 21  1  0
  1 22  1  0
  1 23  1  0
  4 24  1  0
  5 25  1  0
  7 26  1  0
 11 27  1  0
 12 28  1  0
 12 29  1  0
 12 30  1  0
 14 31  1  0
 14 32  1  0
 14 33  1  0
 15 34  1  0
 15 35  1  0
 16 36  1  0
 17 37  1  0
 17 38  1  0
 17 39  1  0
 18 40  1  0
 18 41  1  0
 18 42  1  0
 19 43  1  0
 20 44  1  0
M  END
>  <energy_abs>  (183) 
44.161193401964084

>  <SMILES>  (183) 
COc1ccc(C2OC(=O)C(C)C2(C)CC(C)C)cc1

>  <cluster_no>  (183) 
183

>  <ccdc_id>  (183) 
33

>  <initial_conformation_id>  (183) 
101

>  <minimize_method>  (183) 
MMFF

$$$$
