
     RDKit          3D

 44 45  0  0  0  0  0  0  0  0999 V2000
    5.8419    1.7925   -0.2763 C   0  0  0  0  0  0  0  0  0  0  0  0
    5.0151    1.4996    0.8427 O   0  0  0  0  0  0  0  0  0  0  0  0
    3.6858    1.3004    0.5938 C   0  0  0  0  0  0  0  0  0  0  0  0
    3.0658    1.3516   -0.6522 C   0  0  0  0  0  0  0  0  0  0  0  0
    1.6878    1.1241   -0.7646 C   0  0  0  0  0  0  0  0  0  0  0  0
    0.9041    0.8234    0.3600 C   0  0  0  0  0  0  0  0  0  0  0  0
   -0.5847    0.5856    0.2138 C   0  0  0  0  0  0  0  0  0  0  0  0
   -1.2558    1.3687    1.2192 O   0  0  0  0  0  0  0  0  0  0  0  0
   -2.4571    0.8016    1.5150 C   0  0  0  0  0  0  0  0  0  0  0  0
   -3.2658    1.2783    2.2934 O   0  0  0  0  0  0  0  0  0  0  0  0
   -2.6335   -0.4585    0.7095 C   0  0  0  0  0  0  0  0  0  0  0  0
   -3.4709   -1.5010    1.4367 C   0  0  0  0  0  0  0  0  0  0  0  0
   -1.1635   -0.8445    0.3652 C   0  0  0  0  0  0  0  0  0  0  0  0
   -0.5515   -1.6483    1.5331 C   0  0  0  0  0  0  0  0  0  0  0  0
   -1.1799   -1.6853   -0.9467 C   0  0  0  0  0  0  0  0  0  0  0  0
    0.1109   -1.9246   -1.7569 C   0  0  0  0  0  0  0  0  0  0  0  0
   -0.2435   -2.7005   -3.0355 C   0  0  0  0  0  0  0  0  0  0  0  0
    1.2046   -2.6830   -1.0116 C   0  0  0  0  0  0  0  0  0  0  0  0
    1.5378    0.8063    1.6109 C   0  0  0  0  0  0  0  0  0  0  0  0
    2.9127    1.0328    1.7229 C   0  0  0  0  0  0  0  0  0  0  0  0
    5.8477    0.9628   -0.9909 H   0  0  0  0  0  0  0  0  0  0  0  0
    6.8649    1.9239    0.0891 H   0  0  0  0  0  0  0  0  0  0  0  0
    5.5378    2.7278   -0.7579 H   0  0  0  0  0  0  0  0  0  0  0  0
    3.6208    1.5726   -1.5576 H   0  0  0  0  0  0  0  0  0  0  0  0
    1.2328    1.1944   -1.7505 H   0  0  0  0  0  0  0  0  0  0  0  0
   -0.9032    1.0107   -0.7489 H   0  0  0  0  0  0  0  0  0  0  0  0
   -3.1706   -0.1561   -0.2001 H   0  0  0  0  0  0  0  0  0  0  0  0
   -3.1095   -1.6886    2.4530 H   0  0  0  0  0  0  0  0  0  0  0  0
   -4.5054   -1.1523    1.5338 H   0  0  0  0  0  0  0  0  0  0  0  0
   -3.4900   -2.4476    0.8887 H   0  0  0  0  0  0  0  0  0  0  0  0
   -0.7203   -1.1565    2.4977 H   0  0  0  0  0  0  0  0  0  0  0  0
    0.5252   -1.7860    1.4366 H   0  0  0  0  0  0  0  0  0  0  0  0
   -0.9903   -2.6504    1.5977 H   0  0  0  0  0  0  0  0  0  0  0  0
   -1.8849   -1.2021   -1.6386 H   0  0  0  0  0  0  0  0  0  0  0  0
   -1.6301   -2.6626   -0.7222 H   0  0  0  0  0  0  0  0  0  0  0  0
    0.5113   -0.9622   -2.0834 H   0  0  0  0  0  0  0  0  0  0  0  0
   -0.9944   -2.1626   -3.6242 H   0  0  0  0  0  0  0  0  0  0  0  0
    0.6397   -2.8314   -3.6701 H   0  0  0  0  0  0  0  0  0  0  0  0
   -0.6424   -3.6932   -2.8000 H   0  0  0  0  0  0  0  0  0  0  0  0
    1.6968   -2.0481   -0.2725 H   0  0  0  0  0  0  0  0  0  0  0  0
    1.9903   -3.0150   -1.6996 H   0  0  0  0  0  0  0  0  0  0  0  0
    0.8053   -3.5691   -0.5077 H   0  0  0  0  0  0  0  0  0  0  0  0
    0.9657    0.6284    2.5191 H   0  0  0  0  0  0  0  0  0  0  0  0
    3.3823    1.0091    2.7034 H   0  0  0  0  0  0  0  0  0  0  0  0
  1  2  1  0
  2  3  1  0
  3  4  2  0
  4  5  1  0
  5  6  2  0
  6  7  1  0
  7  8  1  0
  8  9  1  0
  9 10  2  0
  9 11  1  0
 11 12  1  0
 11 13  1  0
 13 14  1  0
 13 15  1  0
 15 16  1  0
 16 17  1  0
 16 18  1  0
  6 19  1  0
 19 20  2  0
 20  3  1  0
 13  7  1  0
  1 21  1  0
  1 22  1  0
  1 23  1  0
  4 24  1  0
  5 25  1  0
  7 26  1  0
 11 27  1  0
 12 28  1  0
 12 29  1  0
 12 30  1  0
 14 31  1  0
 14 32  1  0
 14 33  1  0
 15 34  1  0
 15 35  1  0
 16 36  1  0
 17 37  1  0
 17 38  1  0
 17 39  1  0
 18 40  1  0
 18 41  1  0
 18 42  1  0
 19 43  1  0
 20 44  1  0
M  END
>  <energy_abs>  (184) 
46.78432009015826

>  <SMILES>  (184) 
COc1ccc(C2OC(=O)C(C)C2(C)CC(C)C)cc1

>  <cluster_no>  (184) 
184

>  <ccdc_id>  (184) 
33

>  <initial_conformation_id>  (184) 
99

>  <minimize_method>  (184) 
MMFF

$$$$
