%NProcShared=1
%Mem=10GB

#p B3LYP/6-31G* opt freq

test

0  1
C           5.89100         1.91360         1.16720
O           4.62970         2.47050         1.51450
C           3.51960         1.84060         1.02550
C           2.30750         2.43130         1.37960
C           1.09200         1.88930         0.94880
C           1.05930         0.72930         0.16160
C          -0.23980         0.11100        -0.33580
O          -1.31270         1.06550        -0.25410
C          -2.13690         0.76430         0.78440
O          -3.06090         1.47520         1.14610
C          -1.74050        -0.53970         1.42280
C          -1.18140        -0.28320         2.81760
C          -0.78690        -1.16120         0.36560
C           0.26810        -2.08440         0.98930
C          -1.69070        -1.98780        -0.63170
C          -1.03280        -3.00740        -1.59380
C          -0.08600        -2.38810        -2.61710
C          -2.13310        -3.77750        -2.33820
C           2.28890         0.15710        -0.20550
C           3.50590         0.70110         0.22580
H           6.66750         2.52980         1.63060
H           6.04870         1.93830         0.08390
H           5.99490         0.89650         1.55930
H           2.30580         3.32950         1.99300
H           0.17570         2.40010         1.23780
H          -0.10330        -0.06070        -1.40640
H          -2.64870        -1.14410         1.53120
H          -0.26790         0.31520         2.80200
H          -1.90920         0.26270         3.42880
H          -0.96580        -1.22530         3.33150
H           0.96510        -2.47330         0.24160
H          -0.20990        -2.94300         1.47500
H           0.87200        -1.57960         1.74970
H          -2.31050        -1.29700        -1.22000
H          -2.39840        -2.57060        -0.02450
H          -0.47330        -3.74610        -1.00810
H          -0.57820        -1.59260        -3.18610
H           0.80440        -1.97700        -2.13760
H           0.26160        -3.14260        -3.33170
H          -1.70020        -4.54370        -2.99030
H          -2.73780        -3.10650        -2.95800
H          -2.80120        -4.28360        -1.63320
H           2.31780        -0.72530        -0.84050
H           4.42220         0.21120        -0.08610

