
     RDKit          3D

 44 45  0  0  0  0  0  0  0  0999 V2000
    5.8910    1.9136    1.1672 C   0  0  0  0  0  0  0  0  0  0  0  0
    4.6297    2.4705    1.5145 O   0  0  0  0  0  0  0  0  0  0  0  0
    3.5196    1.8406    1.0255 C   0  0  0  0  0  0  0  0  0  0  0  0
    2.3075    2.4313    1.3796 C   0  0  0  0  0  0  0  0  0  0  0  0
    1.0920    1.8893    0.9488 C   0  0  0  0  0  0  0  0  0  0  0  0
    1.0593    0.7293    0.1616 C   0  0  0  0  0  0  0  0  0  0  0  0
   -0.2398    0.1110   -0.3358 C   0  0  0  0  0  0  0  0  0  0  0  0
   -1.3127    1.0655   -0.2541 O   0  0  0  0  0  0  0  0  0  0  0  0
   -2.1369    0.7643    0.7844 C   0  0  0  0  0  0  0  0  0  0  0  0
   -3.0609    1.4752    1.1461 O   0  0  0  0  0  0  0  0  0  0  0  0
   -1.7405   -0.5397    1.4228 C   0  0  0  0  0  0  0  0  0  0  0  0
   -1.1814   -0.2832    2.8176 C   0  0  0  0  0  0  0  0  0  0  0  0
   -0.7869   -1.1612    0.3656 C   0  0  0  0  0  0  0  0  0  0  0  0
    0.2681   -2.0844    0.9893 C   0  0  0  0  0  0  0  0  0  0  0  0
   -1.6907   -1.9878   -0.6317 C   0  0  0  0  0  0  0  0  0  0  0  0
   -1.0328   -3.0074   -1.5938 C   0  0  0  0  0  0  0  0  0  0  0  0
   -0.0860   -2.3881   -2.6171 C   0  0  0  0  0  0  0  0  0  0  0  0
   -2.1331   -3.7775   -2.3382 C   0  0  0  0  0  0  0  0  0  0  0  0
    2.2889    0.1571   -0.2055 C   0  0  0  0  0  0  0  0  0  0  0  0
    3.5059    0.7011    0.2258 C   0  0  0  0  0  0  0  0  0  0  0  0
    6.6675    2.5298    1.6306 H   0  0  0  0  0  0  0  0  0  0  0  0
    6.0487    1.9383    0.0839 H   0  0  0  0  0  0  0  0  0  0  0  0
    5.9949    0.8965    1.5593 H   0  0  0  0  0  0  0  0  0  0  0  0
    2.3058    3.3295    1.9930 H   0  0  0  0  0  0  0  0  0  0  0  0
    0.1757    2.4001    1.2378 H   0  0  0  0  0  0  0  0  0  0  0  0
   -0.1033   -0.0607   -1.4064 H   0  0  0  0  0  0  0  0  0  0  0  0
   -2.6487   -1.1441    1.5312 H   0  0  0  0  0  0  0  0  0  0  0  0
   -0.2679    0.3152    2.8020 H   0  0  0  0  0  0  0  0  0  0  0  0
   -1.9092    0.2627    3.4288 H   0  0  0  0  0  0  0  0  0  0  0  0
   -0.9658   -1.2253    3.3315 H   0  0  0  0  0  0  0  0  0  0  0  0
    0.9651   -2.4733    0.2416 H   0  0  0  0  0  0  0  0  0  0  0  0
   -0.2099   -2.9430    1.4750 H   0  0  0  0  0  0  0  0  0  0  0  0
    0.8720   -1.5796    1.7497 H   0  0  0  0  0  0  0  0  0  0  0  0
   -2.3105   -1.2970   -1.2200 H   0  0  0  0  0  0  0  0  0  0  0  0
   -2.3984   -2.5706   -0.0245 H   0  0  0  0  0  0  0  0  0  0  0  0
   -0.4733   -3.7461   -1.0081 H   0  0  0  0  0  0  0  0  0  0  0  0
   -0.5782   -1.5926   -3.1861 H   0  0  0  0  0  0  0  0  0  0  0  0
    0.8044   -1.9770   -2.1376 H   0  0  0  0  0  0  0  0  0  0  0  0
    0.2616   -3.1426   -3.3317 H   0  0  0  0  0  0  0  0  0  0  0  0
   -1.7002   -4.5437   -2.9903 H   0  0  0  0  0  0  0  0  0  0  0  0
   -2.7378   -3.1065   -2.9580 H   0  0  0  0  0  0  0  0  0  0  0  0
   -2.8012   -4.2836   -1.6332 H   0  0  0  0  0  0  0  0  0  0  0  0
    2.3178   -0.7253   -0.8405 H   0  0  0  0  0  0  0  0  0  0  0  0
    4.4222    0.2112   -0.0861 H   0  0  0  0  0  0  0  0  0  0  0  0
  1  2  1  0
  2  3  1  0
  3  4  2  0
  4  5  1  0
  5  6  2  0
  6  7  1  0
  7  8  1  0
  8  9  1  0
  9 10  2  0
  9 11  1  0
 11 12  1  0
 11 13  1  0
 13 14  1  0
 13 15  1  0
 15 16  1  0
 16 17  1  0
 16 18  1  0
  6 19  1  0
 19 20  2  0
 20  3  1  0
 13  7  1  0
  1 21  1  0
  1 22  1  0
  1 23  1  0
  4 24  1  0
  5 25  1  0
  7 26  1  0
 11 27  1  0
 12 28  1  0
 12 29  1  0
 12 30  1  0
 14 31  1  0
 14 32  1  0
 14 33  1  0
 15 34  1  0
 15 35  1  0
 16 36  1  0
 17 37  1  0
 17 38  1  0
 17 39  1  0
 18 40  1  0
 18 41  1  0
 18 42  1  0
 19 43  1  0
 20 44  1  0
M  END
>  <energy_abs>  (185) 
47.09746035485287

>  <SMILES>  (185) 
COc1ccc(C2OC(=O)C(C)C2(C)CC(C)C)cc1

>  <cluster_no>  (185) 
185

>  <ccdc_id>  (185) 
33

>  <initial_conformation_id>  (185) 
98

>  <minimize_method>  (185) 
MMFF

$$$$
