%NProcShared=1
%Mem=10GB

#p B3LYP/6-31G* opt freq

test

0  1
C           5.99810         1.92570         0.32570
O           4.80120         2.31910        -0.33310
C           3.63210         1.79140         0.14030
C           3.50480         0.89160         1.19660
C           2.24000         0.42720         1.57870
C           1.08060         0.85070         0.91090
C          -0.27370         0.32050         1.33620
O          -1.32260         1.22270         0.96080
C          -2.48520         0.52660         0.83380
O          -3.57310         1.04390         0.63840
C          -2.23820        -0.95380         0.99220
C          -2.76260        -1.39420         2.35530
C          -0.70920        -1.05550         0.77230
C          -0.04290        -2.20120         1.54570
C          -0.40660        -1.18030        -0.76180
C          -0.84840        -2.50590        -1.43330
C          -1.46880        -2.22260        -2.80520
C           0.32940        -3.46980        -1.60970
C           1.22110         1.76090        -0.14570
C           2.48440         2.22240        -0.52560
H           5.99000         2.23330         1.37670
H           6.83280         2.43640        -0.16400
H           6.16510         0.84770         0.23000
H           4.36760         0.53130         1.74670
H           2.17170        -0.26980         2.41150
H          -0.27950         0.31000         2.43560
H          -2.79400        -1.47490         0.20670
H          -2.26420        -0.86960         3.17720
H          -2.63100        -2.47090         2.49950
H          -3.83380        -1.17940         2.44180
H          -0.09720        -2.04780         2.62900
H           1.01770        -2.28920         1.28830
H          -0.52110        -3.16210         1.33000
H           0.66960        -1.05270        -0.93300
H          -0.88770        -0.33820        -1.27700
H          -1.60860        -3.01030        -0.82750
H          -2.35160        -1.58190        -2.70610
H          -0.75600        -1.72070        -3.46860
H          -1.78650        -3.15230        -3.28920
H          -0.00330        -4.40410        -2.07480
H           0.78770        -3.72610        -0.65110
H           1.10590        -3.03600        -2.24930
H           0.34870         2.12200        -0.68710
H           2.57240         2.92790        -1.34850

