
     RDKit          3D

 44 45  0  0  0  0  0  0  0  0999 V2000
    5.7097    2.3032   -0.1206 C   0  0  0  0  0  0  0  0  0  0  0  0
    4.3770    2.7004   -0.4174 O   0  0  0  0  0  0  0  0  0  0  0  0
    3.3756    1.8834    0.0272 C   0  0  0  0  0  0  0  0  0  0  0  0
    3.5360    0.6896    0.7234 C   0  0  0  0  0  0  0  0  0  0  0  0
    2.4139   -0.0511    1.1174 C   0  0  0  0  0  0  0  0  0  0  0  0
    1.1074    0.3715    0.8127 C   0  0  0  0  0  0  0  0  0  0  0  0
   -0.0675   -0.4688    1.2831 C   0  0  0  0  0  0  0  0  0  0  0  0
   -0.7914    0.3058    2.2574 O   0  0  0  0  0  0  0  0  0  0  0  0
   -1.9783    0.7277    1.7402 C   0  0  0  0  0  0  0  0  0  0  0  0
   -2.7559    1.4598    2.3304 O   0  0  0  0  0  0  0  0  0  0  0  0
   -2.1663    0.1819    0.3469 C   0  0  0  0  0  0  0  0  0  0  0  0
   -3.6258   -0.1602    0.0688 C   0  0  0  0  0  0  0  0  0  0  0  0
   -1.1531   -0.9904    0.3007 C   0  0  0  0  0  0  0  0  0  0  0  0
   -1.7905   -2.2578    0.9210 C   0  0  0  0  0  0  0  0  0  0  0  0
   -0.7082   -1.2413   -1.1707 C   0  0  0  0  0  0  0  0  0  0  0  0
    0.0768   -2.5034   -1.6036 C   0  0  0  0  0  0  0  0  0  0  0  0
    1.3383   -2.7884   -0.8006 C   0  0  0  0  0  0  0  0  0  0  0  0
   -0.7879   -3.7611   -1.7227 C   0  0  0  0  0  0  0  0  0  0  0  0
    0.9647    1.5899    0.1366 C   0  0  0  0  0  0  0  0  0  0  0  0
    2.0859    2.3289   -0.2580 C   0  0  0  0  0  0  0  0  0  0  0  0
    5.9517    1.3473   -0.5968 H   0  0  0  0  0  0  0  0  0  0  0  0
    6.3838    3.0602   -0.5326 H   0  0  0  0  0  0  0  0  0  0  0  0
    5.8778    2.2607    0.9607 H   0  0  0  0  0  0  0  0  0  0  0  0
    4.5168    0.3051    0.9820 H   0  0  0  0  0  0  0  0  0  0  0  0
    2.5772   -0.9745    1.6712 H   0  0  0  0  0  0  0  0  0  0  0  0
    0.3423   -1.3236    1.8355 H   0  0  0  0  0  0  0  0  0  0  0  0
   -1.8686    0.9699   -0.3531 H   0  0  0  0  0  0  0  0  0  0  0  0
   -3.7394   -0.6791   -0.8875 H   0  0  0  0  0  0  0  0  0  0  0  0
   -4.0656   -0.7780    0.8587 H   0  0  0  0  0  0  0  0  0  0  0  0
   -4.2244    0.7567    0.0218 H   0  0  0  0  0  0  0  0  0  0  0  0
   -2.5655   -2.6780    0.2717 H   0  0  0  0  0  0  0  0  0  0  0  0
   -1.0424   -3.0343    1.1046 H   0  0  0  0  0  0  0  0  0  0  0  0
   -2.2545   -2.0477    1.8919 H   0  0  0  0  0  0  0  0  0  0  0  0
   -1.6103   -1.2148   -1.7983 H   0  0  0  0  0  0  0  0  0  0  0  0
   -0.1277   -0.3750   -1.5110 H   0  0  0  0  0  0  0  0  0  0  0  0
    0.4110   -2.2915   -2.6301 H   0  0  0  0  0  0  0  0  0  0  0  0
    1.8554   -3.6698   -1.1965 H   0  0  0  0  0  0  0  0  0  0  0  0
    2.0363   -1.9513   -0.8762 H   0  0  0  0  0  0  0  0  0  0  0  0
    1.1252   -2.9815    0.2532 H   0  0  0  0  0  0  0  0  0  0  0  0
   -0.2661   -4.5202   -2.3170 H   0  0  0  0  0  0  0  0  0  0  0  0
   -1.7348   -3.5454   -2.2280 H   0  0  0  0  0  0  0  0  0  0  0  0
   -1.0059   -4.2162   -0.7543 H   0  0  0  0  0  0  0  0  0  0  0  0
   -0.0114    2.0061   -0.0871 H   0  0  0  0  0  0  0  0  0  0  0  0
    1.9489    3.2705   -0.7851 H   0  0  0  0  0  0  0  0  0  0  0  0
  1  2  1  0
  2  3  1  0
  3  4  2  0
  4  5  1  0
  5  6  2  0
  6  7  1  0
  7  8  1  0
  8  9  1  0
  9 10  2  0
  9 11  1  0
 11 12  1  0
 11 13  1  0
 13 14  1  0
 13 15  1  0
 15 16  1  0
 16 17  1  0
 16 18  1  0
  6 19  1  0
 19 20  2  0
 20  3  1  0
 13  7  1  0
  1 21  1  0
  1 22  1  0
  1 23  1  0
  4 24  1  0
  5 25  1  0
  7 26  1  0
 11 27  1  0
 12 28  1  0
 12 29  1  0
 12 30  1  0
 14 31  1  0
 14 32  1  0
 14 33  1  0
 15 34  1  0
 15 35  1  0
 16 36  1  0
 17 37  1  0
 17 38  1  0
 17 39  1  0
 18 40  1  0
 18 41  1  0
 18 42  1  0
 19 43  1  0
 20 44  1  0
M  END
>  <energy_abs>  (188) 
50.24077919643979

>  <SMILES>  (188) 
COc1ccc(C2OC(=O)C(C)C2(C)CC(C)C)cc1

>  <cluster_no>  (188) 
188

>  <ccdc_id>  (188) 
33

>  <initial_conformation_id>  (188) 
93

>  <minimize_method>  (188) 
MMFF

$$$$
