#Put Keywords Here, check Charge and Multiplicity.

 

0  1
C           5.91100         2.17070         1.06440
O           4.62320         2.75920         1.19320
C           3.55710         2.01160         0.77720
C           3.61050         0.72040         0.25920
C           2.43330         0.06750        -0.12810
C           1.17830         0.68640        -0.00100
C          -0.07470        -0.06920        -0.42220
O          -1.10750         0.85130        -0.82290
C          -2.05090         0.94650         0.15710
O          -3.02130         1.68300         0.09930
C          -1.67600         0.05510         1.31190
C          -2.89580        -0.45840         2.06200
C          -0.75460        -0.98850         0.62940
C           0.19210        -1.60940         1.66690
C          -1.59400        -2.11440        -0.07730
C          -0.88150        -3.41230        -0.53640
C          -1.93180        -4.40240        -1.06060
C           0.18290        -3.20890        -1.60950
C           1.14190         1.99060         0.51180
C           2.31840         2.64070         0.89820
H           6.64710         2.89400         1.42840
H           6.14470         1.95690         0.01610
H           5.99650         1.26980         1.68080
H           4.54980         0.19100         0.14000
H           2.51160        -0.93870        -0.53400
H           0.17620        -0.61940        -1.33150
H          -1.09130         0.67380         2.00560
H          -2.62320        -1.23610         2.78160
H          -3.66500        -0.84860         1.38720
H          -3.36390         0.36050         2.62040
H           0.67700        -0.84770         2.28720
H          -0.35620        -2.26970         2.34830
H           0.98340        -2.19970         1.19560
H          -2.13670        -1.68620        -0.93090
H          -2.36550        -2.45230         0.62450
H          -0.40720        -3.88580         0.33150
H          -1.46590        -5.35260        -1.34310
H          -2.68260        -4.61880        -0.29320
H          -2.44930        -4.00350        -1.93980
H           1.04310        -2.66350        -1.21640
H          -0.21750        -2.66520        -2.47140
H           0.56110        -4.17210        -1.97000
H           0.20440         2.53280         0.61070
H           2.26640         3.65320         1.29230

