
     RDKit          3D

 44 45  0  0  0  0  0  0  0  0999 V2000
    5.9110    2.1707    1.0644 C   0  0  0  0  0  0  0  0  0  0  0  0
    4.6232    2.7592    1.1932 O   0  0  0  0  0  0  0  0  0  0  0  0
    3.5571    2.0116    0.7772 C   0  0  0  0  0  0  0  0  0  0  0  0
    3.6105    0.7204    0.2592 C   0  0  0  0  0  0  0  0  0  0  0  0
    2.4333    0.0675   -0.1281 C   0  0  0  0  0  0  0  0  0  0  0  0
    1.1783    0.6864   -0.0010 C   0  0  0  0  0  0  0  0  0  0  0  0
   -0.0747   -0.0692   -0.4222 C   0  0  0  0  0  0  0  0  0  0  0  0
   -1.1075    0.8513   -0.8229 O   0  0  0  0  0  0  0  0  0  0  0  0
   -2.0509    0.9465    0.1571 C   0  0  0  0  0  0  0  0  0  0  0  0
   -3.0213    1.6830    0.0993 O   0  0  0  0  0  0  0  0  0  0  0  0
   -1.6760    0.0551    1.3119 C   0  0  0  0  0  0  0  0  0  0  0  0
   -2.8958   -0.4584    2.0620 C   0  0  0  0  0  0  0  0  0  0  0  0
   -0.7546   -0.9885    0.6294 C   0  0  0  0  0  0  0  0  0  0  0  0
    0.1921   -1.6094    1.6669 C   0  0  0  0  0  0  0  0  0  0  0  0
   -1.5940   -2.1144   -0.0773 C   0  0  0  0  0  0  0  0  0  0  0  0
   -0.8815   -3.4123   -0.5364 C   0  0  0  0  0  0  0  0  0  0  0  0
   -1.9318   -4.4024   -1.0606 C   0  0  0  0  0  0  0  0  0  0  0  0
    0.1829   -3.2089   -1.6095 C   0  0  0  0  0  0  0  0  0  0  0  0
    1.1419    1.9906    0.5118 C   0  0  0  0  0  0  0  0  0  0  0  0
    2.3184    2.6407    0.8982 C   0  0  0  0  0  0  0  0  0  0  0  0
    6.6471    2.8940    1.4284 H   0  0  0  0  0  0  0  0  0  0  0  0
    6.1447    1.9569    0.0161 H   0  0  0  0  0  0  0  0  0  0  0  0
    5.9965    1.2698    1.6808 H   0  0  0  0  0  0  0  0  0  0  0  0
    4.5498    0.1910    0.1400 H   0  0  0  0  0  0  0  0  0  0  0  0
    2.5116   -0.9387   -0.5340 H   0  0  0  0  0  0  0  0  0  0  0  0
    0.1762   -0.6194   -1.3315 H   0  0  0  0  0  0  0  0  0  0  0  0
   -1.0913    0.6738    2.0056 H   0  0  0  0  0  0  0  0  0  0  0  0
   -2.6232   -1.2361    2.7816 H   0  0  0  0  0  0  0  0  0  0  0  0
   -3.6650   -0.8486    1.3872 H   0  0  0  0  0  0  0  0  0  0  0  0
   -3.3639    0.3605    2.6204 H   0  0  0  0  0  0  0  0  0  0  0  0
    0.6770   -0.8477    2.2872 H   0  0  0  0  0  0  0  0  0  0  0  0
   -0.3562   -2.2697    2.3483 H   0  0  0  0  0  0  0  0  0  0  0  0
    0.9834   -2.1997    1.1956 H   0  0  0  0  0  0  0  0  0  0  0  0
   -2.1367   -1.6862   -0.9309 H   0  0  0  0  0  0  0  0  0  0  0  0
   -2.3655   -2.4523    0.6245 H   0  0  0  0  0  0  0  0  0  0  0  0
   -0.4072   -3.8858    0.3315 H   0  0  0  0  0  0  0  0  0  0  0  0
   -1.4659   -5.3526   -1.3431 H   0  0  0  0  0  0  0  0  0  0  0  0
   -2.6826   -4.6188   -0.2932 H   0  0  0  0  0  0  0  0  0  0  0  0
   -2.4493   -4.0035   -1.9398 H   0  0  0  0  0  0  0  0  0  0  0  0
    1.0431   -2.6635   -1.2164 H   0  0  0  0  0  0  0  0  0  0  0  0
   -0.2175   -2.6652   -2.4714 H   0  0  0  0  0  0  0  0  0  0  0  0
    0.5611   -4.1721   -1.9700 H   0  0  0  0  0  0  0  0  0  0  0  0
    0.2044    2.5328    0.6107 H   0  0  0  0  0  0  0  0  0  0  0  0
    2.2664    3.6532    1.2923 H   0  0  0  0  0  0  0  0  0  0  0  0
  1  2  1  0
  2  3  1  0
  3  4  2  0
  4  5  1  0
  5  6  2  0
  6  7  1  0
  7  8  1  0
  8  9  1  0
  9 10  2  0
  9 11  1  0
 11 12  1  0
 11 13  1  0
 13 14  1  0
 13 15  1  0
 15 16  1  0
 16 17  1  0
 16 18  1  0
  6 19  1  0
 19 20  2  0
 20  3  1  0
 13  7  1  0
  1 21  1  0
  1 22  1  0
  1 23  1  0
  4 24  1  0
  5 25  1  0
  7 26  1  0
 11 27  1  0
 12 28  1  0
 12 29  1  0
 12 30  1  0
 14 31  1  0
 14 32  1  0
 14 33  1  0
 15 34  1  0
 15 35  1  0
 16 36  1  0
 17 37  1  0
 17 38  1  0
 17 39  1  0
 18 40  1  0
 18 41  1  0
 18 42  1  0
 19 43  1  0
 20 44  1  0
M  END
>  <energy_abs>  (19) 
45.705668916930165

>  <SMILES>  (19) 
COc1ccc(C2OC(=O)C(C)C2(C)CC(C)C)cc1

>  <cluster_no>  (19) 
19

>  <ccdc_id>  (19) 
33

>  <initial_conformation_id>  (19) 
176

>  <minimize_method>  (19) 
MMFF

$$$$
