%NProcShared=1
%Mem=10GB

#p B3LYP/6-31G* opt freq

test

0  1
C           4.94580         3.57730         2.04790
O           4.89310         2.55170         1.06420
C           3.65570         2.06630         0.74480
C           3.65130         1.07850        -0.23950
C           2.45300         0.49540        -0.66040
C           1.22670         0.87980        -0.09480
C          -0.05520         0.22180        -0.58090
O          -1.17900         1.08110        -0.34530
C          -1.92960         0.60330         0.68030
O          -2.86640         1.21130         1.17390
C          -1.44390        -0.75100         1.12510
C          -0.88050        -0.65960         2.53780
C          -0.46560        -1.16550         0.00460
C           0.72420        -2.01330         0.47900
C          -1.24020        -1.93590        -1.13240
C          -1.49680        -3.45590        -0.97710
C          -2.36670        -3.83340         0.21910
C          -2.15260        -3.98880        -2.25860
C           1.24230         1.88590         0.88260
C           2.44480         2.47040         1.30210
H           4.40320         4.46940         1.71800
H           5.99510         3.85720         2.18290
H           4.57020         3.21910         3.01210
H           4.59070         0.76260        -0.68720
H           2.48910        -0.26470        -1.43830
H           0.03690         0.16320        -1.67290
H          -2.32240        -1.40000         1.14410
H          -1.63350        -0.26170         3.22750
H          -0.58790        -1.64720         2.90780
H          -0.01260         0.00170         2.59900
H           1.35800        -2.30720        -0.36500
H           1.35610        -1.48550         1.20000
H           0.39320        -2.92910         0.97850
H          -2.19650        -1.43140        -1.32820
H          -0.65680        -1.82620        -2.05810
H          -0.53470        -3.97230        -0.87770
H          -1.87080        -3.60330         1.16580
H          -2.57210        -4.90980         0.22380
H          -3.32940        -3.31240         0.19130
H          -1.52450        -3.78560        -3.13250
H          -3.13030        -3.52430        -2.42710
H          -2.29760        -5.07290        -2.20090
H           0.31710         2.24340         1.33070
H           2.39440         3.24300         2.06240

