
     RDKit          3D

 44 45  0  0  0  0  0  0  0  0999 V2000
    4.9458    3.5773    2.0479 C   0  0  0  0  0  0  0  0  0  0  0  0
    4.8931    2.5517    1.0642 O   0  0  0  0  0  0  0  0  0  0  0  0
    3.6557    2.0663    0.7448 C   0  0  0  0  0  0  0  0  0  0  0  0
    3.6513    1.0785   -0.2395 C   0  0  0  0  0  0  0  0  0  0  0  0
    2.4530    0.4954   -0.6604 C   0  0  0  0  0  0  0  0  0  0  0  0
    1.2267    0.8798   -0.0948 C   0  0  0  0  0  0  0  0  0  0  0  0
   -0.0552    0.2218   -0.5809 C   0  0  0  0  0  0  0  0  0  0  0  0
   -1.1790    1.0811   -0.3453 O   0  0  0  0  0  0  0  0  0  0  0  0
   -1.9296    0.6033    0.6803 C   0  0  0  0  0  0  0  0  0  0  0  0
   -2.8664    1.2113    1.1739 O   0  0  0  0  0  0  0  0  0  0  0  0
   -1.4439   -0.7510    1.1251 C   0  0  0  0  0  0  0  0  0  0  0  0
   -0.8805   -0.6596    2.5378 C   0  0  0  0  0  0  0  0  0  0  0  0
   -0.4656   -1.1655    0.0046 C   0  0  0  0  0  0  0  0  0  0  0  0
    0.7242   -2.0133    0.4790 C   0  0  0  0  0  0  0  0  0  0  0  0
   -1.2402   -1.9359   -1.1324 C   0  0  0  0  0  0  0  0  0  0  0  0
   -1.4968   -3.4559   -0.9771 C   0  0  0  0  0  0  0  0  0  0  0  0
   -2.3667   -3.8334    0.2191 C   0  0  0  0  0  0  0  0  0  0  0  0
   -2.1526   -3.9888   -2.2586 C   0  0  0  0  0  0  0  0  0  0  0  0
    1.2423    1.8859    0.8826 C   0  0  0  0  0  0  0  0  0  0  0  0
    2.4448    2.4704    1.3021 C   0  0  0  0  0  0  0  0  0  0  0  0
    4.4032    4.4694    1.7180 H   0  0  0  0  0  0  0  0  0  0  0  0
    5.9951    3.8572    2.1829 H   0  0  0  0  0  0  0  0  0  0  0  0
    4.5702    3.2191    3.0121 H   0  0  0  0  0  0  0  0  0  0  0  0
    4.5907    0.7626   -0.6872 H   0  0  0  0  0  0  0  0  0  0  0  0
    2.4891   -0.2647   -1.4383 H   0  0  0  0  0  0  0  0  0  0  0  0
    0.0369    0.1632   -1.6729 H   0  0  0  0  0  0  0  0  0  0  0  0
   -2.3224   -1.4000    1.1441 H   0  0  0  0  0  0  0  0  0  0  0  0
   -1.6335   -0.2617    3.2275 H   0  0  0  0  0  0  0  0  0  0  0  0
   -0.5879   -1.6472    2.9078 H   0  0  0  0  0  0  0  0  0  0  0  0
   -0.0126    0.0017    2.5990 H   0  0  0  0  0  0  0  0  0  0  0  0
    1.3580   -2.3072   -0.3650 H   0  0  0  0  0  0  0  0  0  0  0  0
    1.3561   -1.4855    1.2000 H   0  0  0  0  0  0  0  0  0  0  0  0
    0.3932   -2.9291    0.9785 H   0  0  0  0  0  0  0  0  0  0  0  0
   -2.1965   -1.4314   -1.3282 H   0  0  0  0  0  0  0  0  0  0  0  0
   -0.6568   -1.8262   -2.0581 H   0  0  0  0  0  0  0  0  0  0  0  0
   -0.5347   -3.9723   -0.8777 H   0  0  0  0  0  0  0  0  0  0  0  0
   -1.8708   -3.6033    1.1658 H   0  0  0  0  0  0  0  0  0  0  0  0
   -2.5721   -4.9098    0.2238 H   0  0  0  0  0  0  0  0  0  0  0  0
   -3.3294   -3.3124    0.1913 H   0  0  0  0  0  0  0  0  0  0  0  0
   -1.5245   -3.7856   -3.1325 H   0  0  0  0  0  0  0  0  0  0  0  0
   -3.1303   -3.5243   -2.4271 H   0  0  0  0  0  0  0  0  0  0  0  0
   -2.2976   -5.0729   -2.2009 H   0  0  0  0  0  0  0  0  0  0  0  0
    0.3171    2.2434    1.3307 H   0  0  0  0  0  0  0  0  0  0  0  0
    2.3944    3.2430    2.0624 H   0  0  0  0  0  0  0  0  0  0  0  0
  1  2  1  0
  2  3  1  0
  3  4  2  0
  4  5  1  0
  5  6  2  0
  6  7  1  0
  7  8  1  0
  8  9  1  0
  9 10  2  0
  9 11  1  0
 11 12  1  0
 11 13  1  0
 13 14  1  0
 13 15  1  0
 15 16  1  0
 16 17  1  0
 16 18  1  0
  6 19  1  0
 19 20  2  0
 20  3  1  0
 13  7  1  0
  1 21  1  0
  1 22  1  0
  1 23  1  0
  4 24  1  0
  5 25  1  0
  7 26  1  0
 11 27  1  0
 12 28  1  0
 12 29  1  0
 12 30  1  0
 14 31  1  0
 14 32  1  0
 14 33  1  0
 15 34  1  0
 15 35  1  0
 16 36  1  0
 17 37  1  0
 17 38  1  0
 17 39  1  0
 18 40  1  0
 18 41  1  0
 18 42  1  0
 19 43  1  0
 20 44  1  0
M  END
>  <energy_abs>  (190) 
46.487158259692784

>  <SMILES>  (190) 
COc1ccc(C2OC(=O)C(C)C2(C)CC(C)C)cc1

>  <cluster_no>  (190) 
190

>  <ccdc_id>  (190) 
33

>  <initial_conformation_id>  (190) 
90

>  <minimize_method>  (190) 
MMFF

$$$$
