#Put Keywords Here, check Charge and Multiplicity.

 

0  1
C           5.93580         2.59740         0.91230
O           4.65170         2.89700         1.44410
C           3.58860         2.22300         0.91090
C           3.64700         1.25310        -0.08690
C           2.47330         0.63870        -0.54050
C           1.21900         0.97660        -0.00380
C          -0.02350         0.26780        -0.52030
O          -1.17320         1.12510        -0.42050
C          -1.96470         0.72150         0.61420
O          -2.98690         1.29570         0.95100
C          -1.36030        -0.48710         1.28500
C          -2.42010        -1.39430         1.88370
C          -0.45760        -1.06080         0.17180
C           0.71140        -1.85420         0.76800
C          -1.24140        -1.90720        -0.89990
C          -1.56370        -3.38980        -0.58800
C          -0.48800        -4.33970        -1.12800
C          -2.90850        -3.77580        -1.21770
C           1.17390         1.96040         0.99290
C           2.34770         2.57220         1.44420
H           6.20330         1.55110         1.09350
H           5.98850         2.84050        -0.15410
H           6.66750         3.22280         1.43270
H           4.58720         0.95080        -0.53570
H           2.54950        -0.11400        -1.32330
H           0.13230         0.10870        -1.59480
H          -0.74190        -0.10320         2.10750
H          -1.97160        -2.28710         2.32830
H          -3.17240        -1.69450         1.14870
H          -2.95910        -0.87020         2.68150
H           0.36600        -2.75230         1.28930
H           1.41950        -2.15800        -0.00950
H           1.26520        -1.27170         1.51240
H          -0.67170        -1.89080        -1.83950
H          -2.17640        -1.37840        -1.12960
H          -1.64960        -3.55070         0.48930
H          -0.74710        -5.38060        -0.90470
H          -0.38610        -4.24820        -2.21500
H           0.49010        -4.14760        -0.68240
H          -3.15290        -4.82190        -1.00450
H          -2.88980        -3.64630        -2.30540
H          -3.71940        -3.15910        -0.81640
H           0.23030         2.27960         1.42890
H           2.29110         3.33530         2.21730

