
     RDKit          3D

 44 45  0  0  0  0  0  0  0  0999 V2000
    5.9358    2.5974    0.9123 C   0  0  0  0  0  0  0  0  0  0  0  0
    4.6517    2.8970    1.4441 O   0  0  0  0  0  0  0  0  0  0  0  0
    3.5886    2.2230    0.9109 C   0  0  0  0  0  0  0  0  0  0  0  0
    3.6470    1.2531   -0.0869 C   0  0  0  0  0  0  0  0  0  0  0  0
    2.4733    0.6387   -0.5405 C   0  0  0  0  0  0  0  0  0  0  0  0
    1.2190    0.9766   -0.0038 C   0  0  0  0  0  0  0  0  0  0  0  0
   -0.0235    0.2678   -0.5203 C   0  0  0  0  0  0  0  0  0  0  0  0
   -1.1732    1.1251   -0.4205 O   0  0  0  0  0  0  0  0  0  0  0  0
   -1.9647    0.7215    0.6142 C   0  0  0  0  0  0  0  0  0  0  0  0
   -2.9869    1.2957    0.9510 O   0  0  0  0  0  0  0  0  0  0  0  0
   -1.3603   -0.4871    1.2850 C   0  0  0  0  0  0  0  0  0  0  0  0
   -2.4201   -1.3943    1.8837 C   0  0  0  0  0  0  0  0  0  0  0  0
   -0.4576   -1.0608    0.1718 C   0  0  0  0  0  0  0  0  0  0  0  0
    0.7114   -1.8542    0.7680 C   0  0  0  0  0  0  0  0  0  0  0  0
   -1.2414   -1.9072   -0.8999 C   0  0  0  0  0  0  0  0  0  0  0  0
   -1.5637   -3.3898   -0.5880 C   0  0  0  0  0  0  0  0  0  0  0  0
   -0.4880   -4.3397   -1.1280 C   0  0  0  0  0  0  0  0  0  0  0  0
   -2.9085   -3.7758   -1.2177 C   0  0  0  0  0  0  0  0  0  0  0  0
    1.1739    1.9604    0.9929 C   0  0  0  0  0  0  0  0  0  0  0  0
    2.3477    2.5722    1.4442 C   0  0  0  0  0  0  0  0  0  0  0  0
    6.2033    1.5511    1.0935 H   0  0  0  0  0  0  0  0  0  0  0  0
    5.9885    2.8405   -0.1541 H   0  0  0  0  0  0  0  0  0  0  0  0
    6.6675    3.2228    1.4327 H   0  0  0  0  0  0  0  0  0  0  0  0
    4.5872    0.9508   -0.5357 H   0  0  0  0  0  0  0  0  0  0  0  0
    2.5495   -0.1140   -1.3233 H   0  0  0  0  0  0  0  0  0  0  0  0
    0.1323    0.1087   -1.5948 H   0  0  0  0  0  0  0  0  0  0  0  0
   -0.7419   -0.1032    2.1075 H   0  0  0  0  0  0  0  0  0  0  0  0
   -1.9716   -2.2871    2.3283 H   0  0  0  0  0  0  0  0  0  0  0  0
   -3.1724   -1.6945    1.1487 H   0  0  0  0  0  0  0  0  0  0  0  0
   -2.9591   -0.8702    2.6815 H   0  0  0  0  0  0  0  0  0  0  0  0
    0.3660   -2.7523    1.2893 H   0  0  0  0  0  0  0  0  0  0  0  0
    1.4195   -2.1580   -0.0095 H   0  0  0  0  0  0  0  0  0  0  0  0
    1.2652   -1.2717    1.5124 H   0  0  0  0  0  0  0  0  0  0  0  0
   -0.6717   -1.8908   -1.8395 H   0  0  0  0  0  0  0  0  0  0  0  0
   -2.1764   -1.3784   -1.1296 H   0  0  0  0  0  0  0  0  0  0  0  0
   -1.6496   -3.5507    0.4893 H   0  0  0  0  0  0  0  0  0  0  0  0
   -0.7471   -5.3806   -0.9047 H   0  0  0  0  0  0  0  0  0  0  0  0
   -0.3861   -4.2482   -2.2150 H   0  0  0  0  0  0  0  0  0  0  0  0
    0.4901   -4.1476   -0.6824 H   0  0  0  0  0  0  0  0  0  0  0  0
   -3.1529   -4.8219   -1.0045 H   0  0  0  0  0  0  0  0  0  0  0  0
   -2.8898   -3.6463   -2.3054 H   0  0  0  0  0  0  0  0  0  0  0  0
   -3.7194   -3.1591   -0.8164 H   0  0  0  0  0  0  0  0  0  0  0  0
    0.2303    2.2796    1.4289 H   0  0  0  0  0  0  0  0  0  0  0  0
    2.2911    3.3353    2.2173 H   0  0  0  0  0  0  0  0  0  0  0  0
  1  2  1  0
  2  3  1  0
  3  4  2  0
  4  5  1  0
  5  6  2  0
  6  7  1  0
  7  8  1  0
  8  9  1  0
  9 10  2  0
  9 11  1  0
 11 12  1  0
 11 13  1  0
 13 14  1  0
 13 15  1  0
 15 16  1  0
 16 17  1  0
 16 18  1  0
  6 19  1  0
 19 20  2  0
 20  3  1  0
 13  7  1  0
  1 21  1  0
  1 22  1  0
  1 23  1  0
  4 24  1  0
  5 25  1  0
  7 26  1  0
 11 27  1  0
 12 28  1  0
 12 29  1  0
 12 30  1  0
 14 31  1  0
 14 32  1  0
 14 33  1  0
 15 34  1  0
 15 35  1  0
 16 36  1  0
 17 37  1  0
 17 38  1  0
 17 39  1  0
 18 40  1  0
 18 41  1  0
 18 42  1  0
 19 43  1  0
 20 44  1  0
M  END
>  <energy_abs>  (191) 
47.538693904508136

>  <SMILES>  (191) 
COc1ccc(C2OC(=O)C(C)C2(C)CC(C)C)cc1

>  <cluster_no>  (191) 
191

>  <ccdc_id>  (191) 
33

>  <initial_conformation_id>  (191) 
89

>  <minimize_method>  (191) 
MMFF

$$$$
