%NProcShared=1
%Mem=10GB

#p B3LYP/6-31G* opt freq

test

0  1
C           6.08100         1.86140         0.44970
O           4.87730         2.56370         0.16830
C           3.70470         1.91770         0.44590
C           3.57820         0.62970         0.96240
C           2.30910         0.08630         1.19860
C           1.14410         0.81740         0.92000
C          -0.21720         0.19990         1.17340
O          -1.20530         1.20960         1.40450
C          -2.43190         0.69670         1.11640
O          -3.48010         1.27570         1.35180
C          -2.29780        -0.67510         0.49260
C          -3.35490        -0.85670        -0.58990
C          -0.81560        -0.70630         0.05600
C          -0.60040        -0.07280        -1.33500
C          -0.16510        -2.11960         0.14980
C          -0.84840        -3.33150        -0.52140
C          -0.76260        -3.32440        -2.04680
C          -0.19160        -4.62130        -0.00420
C           1.28490         2.11450         0.40790
C           2.55220         2.65470         0.17240
H           6.16530         1.63370         1.51750
H           6.15850         0.95270        -0.15630
H           6.91850         2.51260         0.18130
H           4.44490         0.02030         1.19520
H           2.24290        -0.91900         1.60980
H          -0.14690        -0.34900         2.12390
H          -2.46770        -1.40350         1.29620
H          -3.22550        -1.78970        -1.14090
H          -4.35410        -0.88090        -0.13950
H          -3.35690        -0.02740        -1.30550
H          -0.90960         0.97850        -1.35180
H          -1.17120        -0.57220        -2.11830
H           0.45280        -0.11460        -1.63380
H          -0.07920        -2.36640         1.21770
H           0.86870        -2.06030        -0.21600
H          -1.90080        -3.37410        -0.22260
H           0.25520        -3.11080        -2.38940
H          -1.05770        -4.29570        -2.45970
H          -1.43820        -2.58920        -2.48590
H          -0.27710        -4.69410         1.08540
H           0.87160        -4.65800        -0.26560
H          -0.67740        -5.50550        -0.43090
H           0.40920         2.72190         0.18710
H           2.63990         3.66280        -0.22590

