
     RDKit          3D

 44 45  0  0  0  0  0  0  0  0999 V2000
    5.5403    1.8155    1.9700 C   0  0  0  0  0  0  0  0  0  0  0  0
    5.0021    1.7003    0.6588 O   0  0  0  0  0  0  0  0  0  0  0  0
    3.6501    1.5229    0.5599 C   0  0  0  0  0  0  0  0  0  0  0  0
    2.7554    1.4136    1.6223 C   0  0  0  0  0  0  0  0  0  0  0  0
    1.3875    1.2304    1.3800 C   0  0  0  0  0  0  0  0  0  0  0  0
    0.8887    1.1519    0.0711 C   0  0  0  0  0  0  0  0  0  0  0  0
   -0.5837    0.9346   -0.2381 C   0  0  0  0  0  0  0  0  0  0  0  0
   -1.3883    1.5883    0.7544 O   0  0  0  0  0  0  0  0  0  0  0  0
   -1.9386    0.6670    1.5906 C   0  0  0  0  0  0  0  0  0  0  0  0
   -2.5886    0.9596    2.5816 O   0  0  0  0  0  0  0  0  0  0  0  0
   -1.6002   -0.7346    1.1406 C   0  0  0  0  0  0  0  0  0  0  0  0
   -2.7969   -1.6508    1.3694 C   0  0  0  0  0  0  0  0  0  0  0  0
   -1.1369   -0.5251   -0.3139 C   0  0  0  0  0  0  0  0  0  0  0  0
   -2.3208   -0.4886   -1.3100 C   0  0  0  0  0  0  0  0  0  0  0  0
   -0.0491   -1.5411   -0.7765 C   0  0  0  0  0  0  0  0  0  0  0  0
   -0.3107   -3.0633   -0.7025 C   0  0  0  0  0  0  0  0  0  0  0  0
    1.0176   -3.8031   -0.9351 C   0  0  0  0  0  0  0  0  0  0  0  0
   -1.3318   -3.5791   -1.7145 C   0  0  0  0  0  0  0  0  0  0  0  0
    1.8003    1.2703   -0.9902 C   0  0  0  0  0  0  0  0  0  0  0  0
    3.1641    1.4506   -0.7453 C   0  0  0  0  0  0  0  0  0  0  0  0
    5.3807    0.8966    2.5439 H   0  0  0  0  0  0  0  0  0  0  0  0
    6.6202    1.9655    1.8760 H   0  0  0  0  0  0  0  0  0  0  0  0
    5.1276    2.6852    2.4918 H   0  0  0  0  0  0  0  0  0  0  0  0
    3.0842    1.4705    2.6548 H   0  0  0  0  0  0  0  0  0  0  0  0
    0.7220    1.1629    2.2377 H   0  0  0  0  0  0  0  0  0  0  0  0
   -0.7900    1.4615   -1.1794 H   0  0  0  0  0  0  0  0  0  0  0  0
   -0.7587   -1.0733    1.7580 H   0  0  0  0  0  0  0  0  0  0  0  0
   -3.7203   -1.2308    0.9560 H   0  0  0  0  0  0  0  0  0  0  0  0
   -2.6473   -2.6432    0.9409 H   0  0  0  0  0  0  0  0  0  0  0  0
   -2.9693   -1.7822    2.4440 H   0  0  0  0  0  0  0  0  0  0  0  0
   -1.9607   -0.3472   -2.3355 H   0  0  0  0  0  0  0  0  0  0  0  0
   -2.9232   -1.3961   -1.2933 H   0  0  0  0  0  0  0  0  0  0  0  0
   -3.0059    0.3392   -1.0909 H   0  0  0  0  0  0  0  0  0  0  0  0
    0.2542   -1.2872   -1.8017 H   0  0  0  0  0  0  0  0  0  0  0  0
    0.8393   -1.3773   -0.1541 H   0  0  0  0  0  0  0  0  0  0  0  0
   -0.6422   -3.3289    0.3065 H   0  0  0  0  0  0  0  0  0  0  0  0
    1.4194   -3.5929   -1.9323 H   0  0  0  0  0  0  0  0  0  0  0  0
    0.8829   -4.8864   -0.8440 H   0  0  0  0  0  0  0  0  0  0  0  0
    1.7679   -3.5035   -0.1955 H   0  0  0  0  0  0  0  0  0  0  0  0
   -1.1651   -3.1492   -2.7075 H   0  0  0  0  0  0  0  0  0  0  0  0
   -1.2761   -4.6696   -1.8087 H   0  0  0  0  0  0  0  0  0  0  0  0
   -2.3533   -3.3568   -1.4024 H   0  0  0  0  0  0  0  0  0  0  0  0
    1.4580    1.2200   -2.0220 H   0  0  0  0  0  0  0  0  0  0  0  0
    3.8545    1.5382   -1.5809 H   0  0  0  0  0  0  0  0  0  0  0  0
  1  2  1  0
  2  3  1  0
  3  4  2  0
  4  5  1  0
  5  6  2  0
  6  7  1  0
  7  8  1  0
  8  9  1  0
  9 10  2  0
  9 11  1  0
 11 12  1  0
 11 13  1  0
 13 14  1  0
 13 15  1  0
 15 16  1  0
 16 17  1  0
 16 18  1  0
  6 19  1  0
 19 20  2  0
 20  3  1  0
 13  7  1  0
  1 21  1  0
  1 22  1  0
  1 23  1  0
  4 24  1  0
  5 25  1  0
  7 26  1  0
 11 27  1  0
 12 28  1  0
 12 29  1  0
 12 30  1  0
 14 31  1  0
 14 32  1  0
 14 33  1  0
 15 34  1  0
 15 35  1  0
 16 36  1  0
 17 37  1  0
 17 38  1  0
 17 39  1  0
 18 40  1  0
 18 41  1  0
 18 42  1  0
 19 43  1  0
 20 44  1  0
M  END
>  <energy_abs>  (193) 
47.132859999634285

>  <SMILES>  (193) 
COc1ccc(C2OC(=O)C(C)C2(C)CC(C)C)cc1

>  <cluster_no>  (193) 
193

>  <ccdc_id>  (193) 
33

>  <initial_conformation_id>  (193) 
87

>  <minimize_method>  (193) 
MMFF

$$$$
