%NProcShared=1
%Mem=10GB

#p B3LYP/6-31G* opt freq

test

0  1
C           5.54030         1.81550         1.97000
O           5.00210         1.70030         0.65880
C           3.65010         1.52290         0.55990
C           2.75540         1.41360         1.62230
C           1.38750         1.23040         1.38000
C           0.88870         1.15190         0.07110
C          -0.58370         0.93460        -0.23810
O          -1.38830         1.58830         0.75440
C          -1.93860         0.66700         1.59060
O          -2.58860         0.95960         2.58160
C          -1.60020        -0.73460         1.14060
C          -2.79690        -1.65080         1.36940
C          -1.13690        -0.52510        -0.31390
C          -2.32080        -0.48860        -1.31000
C          -0.04910        -1.54110        -0.77650
C          -0.31070        -3.06330        -0.70250
C           1.01760        -3.80310        -0.93510
C          -1.33180        -3.57910        -1.71450
C           1.80030         1.27030        -0.99020
C           3.16410         1.45060        -0.74530
H           5.38070         0.89660         2.54390
H           6.62020         1.96550         1.87600
H           5.12760         2.68520         2.49180
H           3.08420         1.47050         2.65480
H           0.72200         1.16290         2.23770
H          -0.79000         1.46150        -1.17940
H          -0.75870        -1.07330         1.75800
H          -3.72030        -1.23080         0.95600
H          -2.64730        -2.64320         0.94090
H          -2.96930        -1.78220         2.44400
H          -1.96070        -0.34720        -2.33550
H          -2.92320        -1.39610        -1.29330
H          -3.00590         0.33920        -1.09090
H           0.25420        -1.28720        -1.80170
H           0.83930        -1.37730        -0.15410
H          -0.64220        -3.32890         0.30650
H           1.41940        -3.59290        -1.93230
H           0.88290        -4.88640        -0.84400
H           1.76790        -3.50350        -0.19550
H          -1.16510        -3.14920        -2.70750
H          -1.27610        -4.66960        -1.80870
H          -2.35330        -3.35680        -1.40240
H           1.45800         1.22000        -2.02200
H           3.85450         1.53820        -1.58090

