
     RDKit          3D

 44 45  0  0  0  0  0  0  0  0999 V2000
    5.4675    2.8586   -0.3728 C   0  0  0  0  0  0  0  0  0  0  0  0
    5.0782    1.9241    0.6260 O   0  0  0  0  0  0  0  0  0  0  0  0
    3.7492    1.6095    0.6918 C   0  0  0  0  0  0  0  0  0  0  0  0
    3.4120    0.7056    1.7000 C   0  0  0  0  0  0  0  0  0  0  0  0
    2.0880    0.2961    1.8800 C   0  0  0  0  0  0  0  0  0  0  0  0
    1.0700    0.7812    1.0472 C   0  0  0  0  0  0  0  0  0  0  0  0
   -0.3589    0.3184    1.2498 C   0  0  0  0  0  0  0  0  0  0  0  0
   -1.2857    1.2629    0.7012 O   0  0  0  0  0  0  0  0  0  0  0  0
   -2.4572    0.6259    0.4367 C   0  0  0  0  0  0  0  0  0  0  0  0
   -3.4798    1.1938    0.0886 O   0  0  0  0  0  0  0  0  0  0  0  0
   -2.3126   -0.8610    0.6503 C   0  0  0  0  0  0  0  0  0  0  0  0
   -3.0472   -1.2490    1.9295 C   0  0  0  0  0  0  0  0  0  0  0  0
   -0.7761   -1.0532    0.6481 C   0  0  0  0  0  0  0  0  0  0  0  0
   -0.2819   -2.2039    1.5373 C   0  0  0  0  0  0  0  0  0  0  0  0
   -0.2529   -1.2303   -0.8218 C   0  0  0  0  0  0  0  0  0  0  0  0
   -0.2966   -2.6415   -1.4628 C   0  0  0  0  0  0  0  0  0  0  0  0
   -1.6964   -3.2293   -1.6177 C   0  0  0  0  0  0  0  0  0  0  0  0
    0.3772   -2.5878   -2.8412 C   0  0  0  0  0  0  0  0  0  0  0  0
    1.4180    1.6948    0.0400 C   0  0  0  0  0  0  0  0  0  0  0  0
    2.7453    2.1043   -0.1378 C   0  0  0  0  0  0  0  0  0  0  0  0
    6.5483    3.0070   -0.2884 H   0  0  0  0  0  0  0  0  0  0  0  0
    5.2620    2.4719   -1.3764 H   0  0  0  0  0  0  0  0  0  0  0  0
    4.9850    3.8290   -0.2156 H   0  0  0  0  0  0  0  0  0  0  0  0
    4.1892    0.3187    2.3549 H   0  0  0  0  0  0  0  0  0  0  0  0
    1.8636   -0.4024    2.6828 H   0  0  0  0  0  0  0  0  0  0  0  0
   -0.5385    0.3338    2.3347 H   0  0  0  0  0  0  0  0  0  0  0  0
   -2.7861   -1.3554   -0.1994 H   0  0  0  0  0  0  0  0  0  0  0  0
   -2.6414   -0.7377    2.8087 H   0  0  0  0  0  0  0  0  0  0  0  0
   -2.9971   -2.3286    2.1009 H   0  0  0  0  0  0  0  0  0  0  0  0
   -4.1063   -0.9756    1.8617 H   0  0  0  0  0  0  0  0  0  0  0  0
   -0.7795   -3.1469    1.2906 H   0  0  0  0  0  0  0  0  0  0  0  0
    0.7963   -2.3580    1.4225 H   0  0  0  0  0  0  0  0  0  0  0  0
   -0.4681   -2.0086    2.5990 H   0  0  0  0  0  0  0  0  0  0  0  0
    0.8047   -0.9418   -0.8435 H   0  0  0  0  0  0  0  0  0  0  0  0
   -0.7662   -0.5204   -1.4843 H   0  0  0  0  0  0  0  0  0  0  0  0
    0.2959   -3.3296   -0.8481 H   0  0  0  0  0  0  0  0  0  0  0  0
   -1.6587   -4.1822   -2.1575 H   0  0  0  0  0  0  0  0  0  0  0  0
   -2.1539   -3.4368   -0.6467 H   0  0  0  0  0  0  0  0  0  0  0  0
   -2.3514   -2.5555   -2.1797 H   0  0  0  0  0  0  0  0  0  0  0  0
    1.4076   -2.2259   -2.7588 H   0  0  0  0  0  0  0  0  0  0  0  0
   -0.1639   -1.9214   -3.5217 H   0  0  0  0  0  0  0  0  0  0  0  0
    0.4124   -3.5829   -3.2974 H   0  0  0  0  0  0  0  0  0  0  0  0
    0.6551    2.1000   -0.6229 H   0  0  0  0  0  0  0  0  0  0  0  0
    2.9558    2.8115   -0.9331 H   0  0  0  0  0  0  0  0  0  0  0  0
  1  2  1  0
  2  3  1  0
  3  4  2  0
  4  5  1  0
  5  6  2  0
  6  7  1  0
  7  8  1  0
  8  9  1  0
  9 10  2  0
  9 11  1  0
 11 12  1  0
 11 13  1  0
 13 14  1  0
 13 15  1  0
 15 16  1  0
 16 17  1  0
 16 18  1  0
  6 19  1  0
 19 20  2  0
 20  3  1  0
 13  7  1  0
  1 21  1  0
  1 22  1  0
  1 23  1  0
  4 24  1  0
  5 25  1  0
  7 26  1  0
 11 27  1  0
 12 28  1  0
 12 29  1  0
 12 30  1  0
 14 31  1  0
 14 32  1  0
 14 33  1  0
 15 34  1  0
 15 35  1  0
 16 36  1  0
 17 37  1  0
 17 38  1  0
 17 39  1  0
 18 40  1  0
 18 41  1  0
 18 42  1  0
 19 43  1  0
 20 44  1  0
M  END
>  <energy_abs>  (195) 
44.240455594359766

>  <SMILES>  (195) 
COc1ccc(C2OC(=O)C(C)C2(C)CC(C)C)cc1

>  <cluster_no>  (195) 
195

>  <ccdc_id>  (195) 
33

>  <initial_conformation_id>  (195) 
85

>  <minimize_method>  (195) 
MMFF

$$$$
