#Put Keywords Here, check Charge and Multiplicity.

 

0  1
C           5.79430         2.14490         1.17730
O           4.50830         2.64600         1.51880
C           3.42900         1.97020         1.02180
C           3.46950         0.82980         0.22350
C           2.27980         0.23600        -0.21630
C           1.02620         0.76170         0.14010
C          -0.23640         0.08150        -0.36120
O          -1.33620         1.00560        -0.38320
C          -2.22920         0.71260         0.59880
O          -3.20730         1.39830         0.85170
C          -1.83710        -0.54290         1.33120
C          -1.42150        -0.19340         2.75530
C          -0.76370        -1.16120         0.40290
C           0.29800        -1.96620         1.16510
C          -1.51260        -2.10740        -0.60960
C          -0.62480        -2.83630        -1.64900
C          -1.28090        -2.79200        -3.03280
C          -0.38710        -4.29830        -1.25780
C           1.00150         1.91960         0.92850
C           2.19040         2.51080         1.36720
H           5.94060         1.13320         1.57010
H           5.95590         2.17640         0.09470
H           6.54100         2.79430         1.64420
H           4.40770         0.37740        -0.07950
H           2.34380        -0.64840        -0.84770
H          -0.05300        -0.16110        -1.41440
H          -2.72040        -1.19110         1.38020
H          -0.54650         0.46030         2.78720
H          -1.19830        -1.09670         3.33170
H          -2.23120         0.33260         3.27390
H           1.07000        -2.36090         0.49830
H           0.81360        -1.36810         1.92310
H          -0.16040        -2.81650         1.68280
H          -2.26890        -1.51110        -1.13850
H          -2.08100        -2.85540        -0.03970
H           0.34990        -2.34400        -1.73440
H          -0.65910        -3.30320        -3.77550
H          -1.41220        -1.75700        -3.36610
H          -2.26420        -3.27450        -3.02320
H           0.26250        -4.79220        -1.98860
H          -1.32880        -4.85660        -1.21640
H           0.09500        -4.38110        -0.28000
H           0.06110         2.38930         1.20890
H           2.14790         3.40830         1.98030

