
     RDKit          3D

 44 45  0  0  0  0  0  0  0  0999 V2000
    4.8134    3.4475    2.5769 C   0  0  0  0  0  0  0  0  0  0  0  0
    4.8362    2.4475    1.5660 O   0  0  0  0  0  0  0  0  0  0  0  0
    3.6263    1.9948    1.1187 C   0  0  0  0  0  0  0  0  0  0  0  0
    2.3753    2.4094    1.5696 C   0  0  0  0  0  0  0  0  0  0  0  0
    1.2081    1.8594    1.0231 C   0  0  0  0  0  0  0  0  0  0  0  0
    1.2677    0.8781    0.0225 C   0  0  0  0  0  0  0  0  0  0  0  0
    0.0267    0.2585   -0.5983 C   0  0  0  0  0  0  0  0  0  0  0  0
   -1.1036    1.1291   -0.4372 O   0  0  0  0  0  0  0  0  0  0  0  0
   -1.9652    0.6247    0.4852 C   0  0  0  0  0  0  0  0  0  0  0  0
   -2.9474    1.2248    0.8930 O   0  0  0  0  0  0  0  0  0  0  0  0
   -1.5354   -0.7453    0.9401 C   0  0  0  0  0  0  0  0  0  0  0  0
   -1.1059   -0.6902    2.4011 C   0  0  0  0  0  0  0  0  0  0  0  0
   -0.4570   -1.1312   -0.0951 C   0  0  0  0  0  0  0  0  0  0  0  0
    0.6599   -2.0234    0.4636 C   0  0  0  0  0  0  0  0  0  0  0  0
   -1.1429   -1.8512   -1.3164 C   0  0  0  0  0  0  0  0  0  0  0  0
   -1.7307   -3.2582   -1.0433 C   0  0  0  0  0  0  0  0  0  0  0  0
   -3.0960   -3.4037   -1.7235 C   0  0  0  0  0  0  0  0  0  0  0  0
   -0.8021   -4.3656   -1.5518 C   0  0  0  0  0  0  0  0  0  0  0  0
    2.5350    0.4830   -0.4345 C   0  0  0  0  0  0  0  0  0  0  0  0
    3.6980    1.0316    0.1128 C   0  0  0  0  0  0  0  0  0  0  0  0
    4.3203    4.3580    2.2208 H   0  0  0  0  0  0  0  0  0  0  0  0
    5.8499    3.7029    2.8177 H   0  0  0  0  0  0  0  0  0  0  0  0
    4.3418    3.0733    3.4916 H   0  0  0  0  0  0  0  0  0  0  0  0
    2.2666    3.1639    2.3417 H   0  0  0  0  0  0  0  0  0  0  0  0
    0.2507    2.2236    1.3910 H   0  0  0  0  0  0  0  0  0  0  0  0
    0.2144    0.2236   -1.6796 H   0  0  0  0  0  0  0  0  0  0  0  0
   -2.4090   -1.4009    0.8603 H   0  0  0  0  0  0  0  0  0  0  0  0
   -0.8521   -1.6878    2.7730 H   0  0  0  0  0  0  0  0  0  0  0  0
   -1.9190   -0.3049    3.0268 H   0  0  0  0  0  0  0  0  0  0  0  0
   -0.2454   -0.0353    2.5590 H   0  0  0  0  0  0  0  0  0  0  0  0
    1.3715   -2.3008   -0.3215 H   0  0  0  0  0  0  0  0  0  0  0  0
    0.2581   -2.9475    0.8916 H   0  0  0  0  0  0  0  0  0  0  0  0
    1.2256   -1.5361    1.2639 H   0  0  0  0  0  0  0  0  0  0  0  0
   -0.4154   -1.9229   -2.1369 H   0  0  0  0  0  0  0  0  0  0  0  0
   -1.9399   -1.1959   -1.6944 H   0  0  0  0  0  0  0  0  0  0  0  0
   -1.8837   -3.4088    0.0309 H   0  0  0  0  0  0  0  0  0  0  0  0
   -3.8020   -2.6605   -1.3379 H   0  0  0  0  0  0  0  0  0  0  0  0
   -3.0172   -3.2688   -2.8078 H   0  0  0  0  0  0  0  0  0  0  0  0
   -3.5220   -4.3949   -1.5348 H   0  0  0  0  0  0  0  0  0  0  0  0
   -1.2245   -5.3528   -1.3346 H   0  0  0  0  0  0  0  0  0  0  0  0
   -0.6565   -4.2954   -2.6354 H   0  0  0  0  0  0  0  0  0  0  0  0
    0.1814   -4.3177   -1.0772 H   0  0  0  0  0  0  0  0  0  0  0  0
    2.6313   -0.2585   -1.2251 H   0  0  0  0  0  0  0  0  0  0  0  0
    4.6699    0.7079   -0.2522 H   0  0  0  0  0  0  0  0  0  0  0  0
  1  2  1  0
  2  3  1  0
  3  4  2  0
  4  5  1  0
  5  6  2  0
  6  7  1  0
  7  8  1  0
  8  9  1  0
  9 10  2  0
  9 11  1  0
 11 12  1  0
 11 13  1  0
 13 14  1  0
 13 15  1  0
 15 16  1  0
 16 17  1  0
 16 18  1  0
  6 19  1  0
 19 20  2  0
 20  3  1  0
 13  7  1  0
  1 21  1  0
  1 22  1  0
  1 23  1  0
  4 24  1  0
  5 25  1  0
  7 26  1  0
 11 27  1  0
 12 28  1  0
 12 29  1  0
 12 30  1  0
 14 31  1  0
 14 32  1  0
 14 33  1  0
 15 34  1  0
 15 35  1  0
 16 36  1  0
 17 37  1  0
 17 38  1  0
 17 39  1  0
 18 40  1  0
 18 41  1  0
 18 42  1  0
 19 43  1  0
 20 44  1  0
M  END
>  <energy_abs>  (197) 
46.566364873037685

>  <SMILES>  (197) 
COc1ccc(C2OC(=O)C(C)C2(C)CC(C)C)cc1

>  <cluster_no>  (197) 
197

>  <ccdc_id>  (197) 
33

>  <initial_conformation_id>  (197) 
83

>  <minimize_method>  (197) 
MMFF

$$$$
