
     RDKit          3D

 44 45  0  0  0  0  0  0  0  0999 V2000
    5.7245    2.9755    1.2096 C   0  0  0  0  0  0  0  0  0  0  0  0
    4.3706    3.2076    1.5766 O   0  0  0  0  0  0  0  0  0  0  0  0
    3.4354    2.3524    1.0639 C   0  0  0  0  0  0  0  0  0  0  0  0
    2.1193    2.6389    1.4274 C   0  0  0  0  0  0  0  0  0  0  0  0
    1.0604    1.8448    0.9762 C   0  0  0  0  0  0  0  0  0  0  0  0
    1.2988    0.7380    0.1505 C   0  0  0  0  0  0  0  0  0  0  0  0
    0.1868   -0.1697   -0.3547 C   0  0  0  0  0  0  0  0  0  0  0  0
   -1.0326    0.5781   -0.5039 O   0  0  0  0  0  0  0  0  0  0  0  0
   -1.9069    0.2575    0.4945 C   0  0  0  0  0  0  0  0  0  0  0  0
   -3.0045    0.7721    0.6298 O   0  0  0  0  0  0  0  0  0  0  0  0
   -1.2934   -0.7746    1.4029 C   0  0  0  0  0  0  0  0  0  0  0  0
   -2.3097   -1.7258    2.0136 C   0  0  0  0  0  0  0  0  0  0  0  0
   -0.2046   -1.3902    0.5075 C   0  0  0  0  0  0  0  0  0  0  0  0
    0.9500   -1.9301    1.3800 C   0  0  0  0  0  0  0  0  0  0  0  0
   -0.6848   -2.6011   -0.3714 C   0  0  0  0  0  0  0  0  0  0  0  0
   -1.8729   -2.4503   -1.3561 C   0  0  0  0  0  0  0  0  0  0  0  0
   -1.4656   -1.9003   -2.7259 C   0  0  0  0  0  0  0  0  0  0  0  0
   -2.5241   -3.8262   -1.5694 C   0  0  0  0  0  0  0  0  0  0  0  0
    2.6277    0.4629   -0.2158 C   0  0  0  0  0  0  0  0  0  0  0  0
    3.6861    1.2599    0.2373 C   0  0  0  0  0  0  0  0  0  0  0  0
    6.3374    3.7456    1.6880 H   0  0  0  0  0  0  0  0  0  0  0  0
    5.8617    3.0657    0.1269 H   0  0  0  0  0  0  0  0  0  0  0  0
    6.0701    2.0019    1.5727 H   0  0  0  0  0  0  0  0  0  0  0  0
    1.9129    3.4953    2.0656 H   0  0  0  0  0  0  0  0  0  0  0  0
    0.0516    2.1195    1.2749 H   0  0  0  0  0  0  0  0  0  0  0  0
    0.4868   -0.4939   -1.3568 H   0  0  0  0  0  0  0  0  0  0  0  0
   -0.8273   -0.2120    2.2233 H   0  0  0  0  0  0  0  0  0  0  0  0
   -2.9669   -1.1821    2.7018 H   0  0  0  0  0  0  0  0  0  0  0  0
   -1.8153   -2.5179    2.5842 H   0  0  0  0  0  0  0  0  0  0  0  0
   -2.9599   -2.1886    1.2669 H   0  0  0  0  0  0  0  0  0  0  0  0
    1.3261   -1.1795    2.0832 H   0  0  0  0  0  0  0  0  0  0  0  0
    1.7891   -2.2674    0.7617 H   0  0  0  0  0  0  0  0  0  0  0  0
    0.6208   -2.7849    1.9818 H   0  0  0  0  0  0  0  0  0  0  0  0
    0.1796   -2.9718   -0.9411 H   0  0  0  0  0  0  0  0  0  0  0  0
   -0.9300   -3.4160    0.3245 H   0  0  0  0  0  0  0  0  0  0  0  0
   -2.6448   -1.7987   -0.9397 H   0  0  0  0  0  0  0  0  0  0  0  0
   -2.2992   -1.9678   -3.4342 H   0  0  0  0  0  0  0  0  0  0  0  0
   -1.1867   -0.8467   -2.6790 H   0  0  0  0  0  0  0  0  0  0  0  0
   -0.6248   -2.4610   -3.1477 H   0  0  0  0  0  0  0  0  0  0  0  0
   -3.3788   -3.7533   -2.2506 H   0  0  0  0  0  0  0  0  0  0  0  0
   -2.8940   -4.2337   -0.6224 H   0  0  0  0  0  0  0  0  0  0  0  0
   -1.8111   -4.5415   -1.9935 H   0  0  0  0  0  0  0  0  0  0  0  0
    2.8540   -0.3834   -0.8623 H   0  0  0  0  0  0  0  0  0  0  0  0
    4.6914    0.9989   -0.0757 H   0  0  0  0  0  0  0  0  0  0  0  0
  1  2  1  0
  2  3  1  0
  3  4  2  0
  4  5  1  0
  5  6  2  0
  6  7  1  0
  7  8  1  0
  8  9  1  0
  9 10  2  0
  9 11  1  0
 11 12  1  0
 11 13  1  0
 13 14  1  0
 13 15  1  0
 15 16  1  0
 16 17  1  0
 16 18  1  0
  6 19  1  0
 19 20  2  0
 20  3  1  0
 13  7  1  0
  1 21  1  0
  1 22  1  0
  1 23  1  0
  4 24  1  0
  5 25  1  0
  7 26  1  0
 11 27  1  0
 12 28  1  0
 12 29  1  0
 12 30  1  0
 14 31  1  0
 14 32  1  0
 14 33  1  0
 15 34  1  0
 15 35  1  0
 16 36  1  0
 17 37  1  0
 17 38  1  0
 17 39  1  0
 18 40  1  0
 18 41  1  0
 18 42  1  0
 19 43  1  0
 20 44  1  0
M  END
>  <energy_abs>  (198) 
47.153124750828674

>  <SMILES>  (198) 
COc1ccc(C2OC(=O)C(C)C2(C)CC(C)C)cc1

>  <cluster_no>  (198) 
198

>  <ccdc_id>  (198) 
33

>  <initial_conformation_id>  (198) 
82

>  <minimize_method>  (198) 
MMFF

$$$$
