
     RDKit          3D

 44 45  0  0  0  0  0  0  0  0999 V2000
    4.2677    2.2568    3.5970 C   0  0  0  0  0  0  0  0  0  0  0  0
    3.6906    0.9572    3.5955 O   0  0  0  0  0  0  0  0  0  0  0  0
    2.5926    0.7703    2.8031 C   0  0  0  0  0  0  0  0  0  0  0  0
    2.0006    1.7244    1.9792 C   0  0  0  0  0  0  0  0  0  0  0  0
    0.8732    1.3974    1.2131 C   0  0  0  0  0  0  0  0  0  0  0  0
    0.3191    0.1090    1.2491 C   0  0  0  0  0  0  0  0  0  0  0  0
   -0.8973   -0.2898    0.4311 C   0  0  0  0  0  0  0  0  0  0  0  0
   -1.8943    0.7445    0.5279 O   0  0  0  0  0  0  0  0  0  0  0  0
   -1.9762    1.4339   -0.6454 C   0  0  0  0  0  0  0  0  0  0  0  0
   -2.7089    2.3935   -0.8207 O   0  0  0  0  0  0  0  0  0  0  0  0
   -1.0064    0.8666   -1.6514 C   0  0  0  0  0  0  0  0  0  0  0  0
   -1.5457    0.9463   -3.0730 C   0  0  0  0  0  0  0  0  0  0  0  0
   -0.7400   -0.5469   -1.0904 C   0  0  0  0  0  0  0  0  0  0  0  0
   -1.8518   -1.5309   -1.5293 C   0  0  0  0  0  0  0  0  0  0  0  0
    0.6544   -1.0564   -1.5541 C   0  0  0  0  0  0  0  0  0  0  0  0
    1.0782   -2.4667   -1.0817 C   0  0  0  0  0  0  0  0  0  0  0  0
    2.5876   -2.4981   -0.8099 C   0  0  0  0  0  0  0  0  0  0  0  0
    0.7573   -3.5457   -2.1224 C   0  0  0  0  0  0  0  0  0  0  0  0
    0.9174   -0.8367    2.0962 C   0  0  0  0  0  0  0  0  0  0  0  0
    2.0424   -0.5094    2.8586 C   0  0  0  0  0  0  0  0  0  0  0  0
    3.5567    3.0047    3.9634 H   0  0  0  0  0  0  0  0  0  0  0  0
    5.1196    2.2434    4.2839 H   0  0  0  0  0  0  0  0  0  0  0  0
    4.6448    2.5221    2.6037 H   0  0  0  0  0  0  0  0  0  0  0  0
    2.3834    2.7373    1.9118 H   0  0  0  0  0  0  0  0  0  0  0  0
    0.4309    2.1810    0.6033 H   0  0  0  0  0  0  0  0  0  0  0  0
   -1.3413   -1.1713    0.9111 H   0  0  0  0  0  0  0  0  0  0  0  0
   -0.0962    1.4761   -1.5939 H   0  0  0  0  0  0  0  0  0  0  0  0
   -1.6052    1.9921   -3.3954 H   0  0  0  0  0  0  0  0  0  0  0  0
   -0.8940    0.4190   -3.7759 H   0  0  0  0  0  0  0  0  0  0  0  0
   -2.5576    0.5366   -3.1562 H   0  0  0  0  0  0  0  0  0  0  0  0
   -2.8530   -1.1294   -1.3351 H   0  0  0  0  0  0  0  0  0  0  0  0
   -1.7842   -2.4769   -0.9817 H   0  0  0  0  0  0  0  0  0  0  0  0
   -1.7880   -1.7568   -2.5990 H   0  0  0  0  0  0  0  0  0  0  0  0
    1.4084   -0.3265   -1.2319 H   0  0  0  0  0  0  0  0  0  0  0  0
    0.6939   -1.0275   -2.6515 H   0  0  0  0  0  0  0  0  0  0  0  0
    0.5637   -2.7236   -0.1502 H   0  0  0  0  0  0  0  0  0  0  0  0
    3.1587   -2.2697   -1.7166 H   0  0  0  0  0  0  0  0  0  0  0  0
    2.8664   -1.7677   -0.0443 H   0  0  0  0  0  0  0  0  0  0  0  0
    2.8985   -3.4858   -0.4531 H   0  0  0  0  0  0  0  0  0  0  0  0
    1.0811   -4.5305   -1.7676 H   0  0  0  0  0  0  0  0  0  0  0  0
    1.2705   -3.3481   -3.0701 H   0  0  0  0  0  0  0  0  0  0  0  0
   -0.3124   -3.6130   -2.3299 H   0  0  0  0  0  0  0  0  0  0  0  0
    0.5145   -1.8444    2.1753 H   0  0  0  0  0  0  0  0  0  0  0  0
    2.4915   -1.2598    3.5049 H   0  0  0  0  0  0  0  0  0  0  0  0
  1  2  1  0
  2  3  1  0
  3  4  2  0
  4  5  1  0
  5  6  2  0
  6  7  1  0
  7  8  1  0
  8  9  1  0
  9 10  2  0
  9 11  1  0
 11 12  1  0
 11 13  1  0
 13 14  1  0
 13 15  1  0
 15 16  1  0
 16 17  1  0
 16 18  1  0
  6 19  1  0
 19 20  2  0
 20  3  1  0
 13  7  1  0
  1 21  1  0
  1 22  1  0
  1 23  1  0
  4 24  1  0
  5 25  1  0
  7 26  1  0
 11 27  1  0
 12 28  1  0
 12 29  1  0
 12 30  1  0
 14 31  1  0
 14 32  1  0
 14 33  1  0
 15 34  1  0
 15 35  1  0
 16 36  1  0
 17 37  1  0
 17 38  1  0
 17 39  1  0
 18 40  1  0
 18 41  1  0
 18 42  1  0
 19 43  1  0
 20 44  1  0
M  END
>  <energy_abs>  (2) 
44.82607464748033

>  <SMILES>  (2) 
COc1ccc(C2OC(=O)C(C)C2(C)CC(C)C)cc1

>  <cluster_no>  (2) 
2

>  <ccdc_id>  (2) 
33

>  <initial_conformation_id>  (2) 
258

>  <minimize_method>  (2) 
MMFF

$$$$
