#Put Keywords Here, check Charge and Multiplicity.

 

0  1
C           5.43070         2.36580         1.92530
O           4.81940         2.22720         0.64880
C           3.49790         1.87800         0.63250
C           2.69550         1.64240         1.74560
C           1.34890         1.28830         1.58470
C           0.77840         1.14470         0.31030
C          -0.68310         0.77810         0.09960
O          -1.44510         1.06500         1.28580
C          -1.80540        -0.09150         1.90740
O          -2.38720        -0.13180         2.97990
C          -1.35950        -1.29400         1.11210
C          -0.19820        -1.94820         1.85370
C          -1.08800        -0.68230        -0.27950
C          -2.44140        -0.56630        -1.03470
C          -0.03980        -1.41790        -1.16120
C          -0.35710        -2.74660        -1.90050
C          -1.03230        -3.83610        -1.07520
C          -1.10410        -2.53930        -3.22330
C           1.59360         1.41600        -0.79970
C           2.93720         1.76780        -0.63890
H           5.41900         1.41810         2.47370
H           6.47670         2.64520         1.76630
H           4.95720         3.16500         2.50510
H           3.07860         1.73220         2.75670
H           0.75250         1.13680         2.48270
H          -1.05820         1.47330        -0.66410
H          -2.19800        -1.99780         1.06610
H           0.66020        -1.28450         1.96610
H          -0.50730        -2.23740         2.86500
H           0.15040        -2.85260         1.35500
H          -2.29640        -0.12770        -2.02830
H          -2.93080        -1.53650        -1.14960
H          -3.15570         0.07540        -0.50530
H           0.85830        -1.59770        -0.55660
H           0.28310        -0.72010        -1.94350
H           0.62400        -3.15020        -2.19180
H          -2.01280        -3.53290        -0.70290
H          -1.18210        -4.73640        -1.68240
H          -0.40960        -4.13260        -0.22890
H          -0.65300        -1.73380        -3.81180
H          -1.05620        -3.45120        -3.82980
H          -2.16190        -2.31050        -3.07810
H           1.19080         1.36810        -1.80910
H           3.55040         1.96630        -1.51490

