
     RDKit          3D

 44 45  0  0  0  0  0  0  0  0999 V2000
    5.7833    2.2786    0.8479 C   0  0  0  0  0  0  0  0  0  0  0  0
    4.6283    2.3682    1.6721 O   0  0  0  0  0  0  0  0  0  0  0  0
    3.4696    1.8421    1.1728 C   0  0  0  0  0  0  0  0  0  0  0  0
    3.3162    1.2151   -0.0612 C   0  0  0  0  0  0  0  0  0  0  0  0
    2.0652    0.7180   -0.4474 C   0  0  0  0  0  0  0  0  0  0  0  0
    0.9448    0.8271    0.3939 C   0  0  0  0  0  0  0  0  0  0  0  0
   -0.3912    0.2717   -0.0693 C   0  0  0  0  0  0  0  0  0  0  0  0
   -1.4756    0.9263    0.6086 O   0  0  0  0  0  0  0  0  0  0  0  0
   -2.0605    0.0857    1.5023 C   0  0  0  0  0  0  0  0  0  0  0  0
   -2.9476    0.4237    2.2701 O   0  0  0  0  0  0  0  0  0  0  0  0
   -1.4559   -1.2911    1.4276 C   0  0  0  0  0  0  0  0  0  0  0  0
   -0.6759   -1.5753    2.7057 C   0  0  0  0  0  0  0  0  0  0  0  0
   -0.6627   -1.2463    0.0990 C   0  0  0  0  0  0  0  0  0  0  0  0
    0.5841   -2.1416    0.1134 C   0  0  0  0  0  0  0  0  0  0  0  0
   -1.6379   -1.7235   -1.0422 C   0  0  0  0  0  0  0  0  0  0  0  0
   -1.0511   -1.7526   -2.4755 C   0  0  0  0  0  0  0  0  0  0  0  0
   -0.6833   -3.1769   -2.9032 C   0  0  0  0  0  0  0  0  0  0  0  0
   -2.0602   -1.1780   -3.4750 C   0  0  0  0  0  0  0  0  0  0  0  0
    1.1103    1.4764    1.6243 C   0  0  0  0  0  0  0  0  0  0  0  0
    2.3604    1.9716    2.0085 C   0  0  0  0  0  0  0  0  0  0  0  0
    6.6145    2.7455    1.3851 H   0  0  0  0  0  0  0  0  0  0  0  0
    6.0535    1.2343    0.6594 H   0  0  0  0  0  0  0  0  0  0  0  0
    5.6431    2.8267   -0.0897 H   0  0  0  0  0  0  0  0  0  0  0  0
    4.1462    1.0983   -0.7499 H   0  0  0  0  0  0  0  0  0  0  0  0
    1.9743    0.2422   -1.4223 H   0  0  0  0  0  0  0  0  0  0  0  0
   -0.4963    0.5693   -1.1191 H   0  0  0  0  0  0  0  0  0  0  0  0
   -2.2779   -2.0139    1.3585 H   0  0  0  0  0  0  0  0  0  0  0  0
   -0.2842   -2.5973    2.7072 H   0  0  0  0  0  0  0  0  0  0  0  0
    0.1600   -0.8860    2.8476 H   0  0  0  0  0  0  0  0  0  0  0  0
   -1.3252   -1.4736    3.5828 H   0  0  0  0  0  0  0  0  0  0  0  0
    0.3030   -3.1925    0.2466 H   0  0  0  0  0  0  0  0  0  0  0  0
    1.2733   -1.8877    0.9250 H   0  0  0  0  0  0  0  0  0  0  0  0
    1.1537   -2.0660   -0.8173 H   0  0  0  0  0  0  0  0  0  0  0  0
   -2.0129   -2.7253   -0.7905 H   0  0  0  0  0  0  0  0  0  0  0  0
   -2.5228   -1.0722   -1.0295 H   0  0  0  0  0  0  0  0  0  0  0  0
   -0.1477   -1.1359   -2.5334 H   0  0  0  0  0  0  0  0  0  0  0  0
   -0.2467   -3.1772   -3.9078 H   0  0  0  0  0  0  0  0  0  0  0  0
   -1.5655   -3.8263   -2.9219 H   0  0  0  0  0  0  0  0  0  0  0  0
    0.0486   -3.6252   -2.2261 H   0  0  0  0  0  0  0  0  0  0  0  0
   -1.6531   -1.1921   -4.4917 H   0  0  0  0  0  0  0  0  0  0  0  0
   -2.3003   -0.1382   -3.2283 H   0  0  0  0  0  0  0  0  0  0  0  0
   -2.9927   -1.7526   -3.4746 H   0  0  0  0  0  0  0  0  0  0  0  0
    0.2717    1.6183    2.3028 H   0  0  0  0  0  0  0  0  0  0  0  0
    2.4667    2.4705    2.9692 H   0  0  0  0  0  0  0  0  0  0  0  0
  1  2  1  0
  2  3  1  0
  3  4  2  0
  4  5  1  0
  5  6  2  0
  6  7  1  0
  7  8  1  0
  8  9  1  0
  9 10  2  0
  9 11  1  0
 11 12  1  0
 11 13  1  0
 13 14  1  0
 13 15  1  0
 15 16  1  0
 16 17  1  0
 16 18  1  0
  6 19  1  0
 19 20  2  0
 20  3  1  0
 13  7  1  0
  1 21  1  0
  1 22  1  0
  1 23  1  0
  4 24  1  0
  5 25  1  0
  7 26  1  0
 11 27  1  0
 12 28  1  0
 12 29  1  0
 12 30  1  0
 14 31  1  0
 14 32  1  0
 14 33  1  0
 15 34  1  0
 15 35  1  0
 16 36  1  0
 17 37  1  0
 17 38  1  0
 17 39  1  0
 18 40  1  0
 18 41  1  0
 18 42  1  0
 19 43  1  0
 20 44  1  0
M  END
>  <energy_abs>  (201) 
46.820931858343826

>  <SMILES>  (201) 
COc1ccc(C2OC(=O)C(C)C2(C)CC(C)C)cc1

>  <cluster_no>  (201) 
201

>  <ccdc_id>  (201) 
33

>  <initial_conformation_id>  (201) 
77

>  <minimize_method>  (201) 
MMFF

$$$$
