#Put Keywords Here, check Charge and Multiplicity.

 

0  1
C           5.78330         2.27860         0.84790
O           4.62830         2.36820         1.67210
C           3.46960         1.84210         1.17280
C           3.31620         1.21510        -0.06120
C           2.06520         0.71800        -0.44740
C           0.94480         0.82710         0.39390
C          -0.39120         0.27170        -0.06930
O          -1.47560         0.92630         0.60860
C          -2.06050         0.08570         1.50230
O          -2.94760         0.42370         2.27010
C          -1.45590        -1.29110         1.42760
C          -0.67590        -1.57530         2.70570
C          -0.66270        -1.24630         0.09900
C           0.58410        -2.14160         0.11340
C          -1.63790        -1.72350        -1.04220
C          -1.05110        -1.75260        -2.47550
C          -0.68330        -3.17690        -2.90320
C          -2.06020        -1.17800        -3.47500
C           1.11030         1.47640         1.62430
C           2.36040         1.97160         2.00850
H           6.61450         2.74550         1.38510
H           6.05350         1.23430         0.65940
H           5.64310         2.82670        -0.08970
H           4.14620         1.09830        -0.74990
H           1.97430         0.24220        -1.42230
H          -0.49630         0.56930        -1.11910
H          -2.27790        -2.01390         1.35850
H          -0.28420        -2.59730         2.70720
H           0.16000        -0.88600         2.84760
H          -1.32520        -1.47360         3.58280
H           0.30300        -3.19250         0.24660
H           1.27330        -1.88770         0.92500
H           1.15370        -2.06600        -0.81730
H          -2.01290        -2.72530        -0.79050
H          -2.52280        -1.07220        -1.02950
H          -0.14770        -1.13590        -2.53340
H          -0.24670        -3.17720        -3.90780
H          -1.56550        -3.82630        -2.92190
H           0.04860        -3.62520        -2.22610
H          -1.65310        -1.19210        -4.49170
H          -2.30030        -0.13820        -3.22830
H          -2.99270        -1.75260        -3.47460
H           0.27170         1.61830         2.30280
H           2.46670         2.47050         2.96920

