%NProcShared=1
%Mem=10GB

#p B3LYP/6-31G* opt freq

test

0  1
C           5.73770         1.56800         0.37970
O           4.82730         1.13070         1.38040
C           3.50610         1.07950         1.03420
C           2.65000         0.65840         2.05070
C           1.27190         0.55730         1.83290
C           0.71650         0.85890         0.58240
C          -0.77260         0.76550         0.29730
O          -1.50840         1.13060         1.47760
C          -2.09540         0.03740         2.03460
O          -2.67730         0.05380         3.10790
C          -1.92110        -1.17800         1.16110
C          -1.05460        -2.21470         1.86570
C          -1.39700        -0.57760        -0.16650
C          -2.64740        -0.23900        -1.02400
C          -0.46010        -1.54630        -0.94310
C          -0.03070        -1.13570        -2.37250
C           1.40260        -1.61080        -2.64720
C          -0.94120        -1.73920        -3.44940
C           1.58710         1.30860        -0.42400
C           2.96720         1.41190        -0.20520
H           5.73440         0.89020        -0.48040
H           6.74280         1.55200         0.81200
H           5.52330         2.59730         0.07350
H           3.05690         0.41550         3.02970
H           0.64600         0.25720         2.66980
H          -0.99940         1.54900        -0.43780
H          -2.91510        -1.61770         1.00910
H          -0.02740        -1.87670         2.01400
H          -1.46110        -2.44910         2.85600
H          -1.02410        -3.14970         1.29750
H          -3.37360         0.36340        -0.46520
H          -3.16220        -1.15200        -1.34310
H          -2.38180         0.33940        -1.91460
H          -0.94910        -2.52830        -1.00340
H           0.44010        -1.71140        -0.33860
H          -0.05140        -0.04640        -2.47470
H           2.10690        -1.18650        -1.92570
H           1.72920        -1.30400        -3.64670
H           1.47680        -2.70220        -2.58640
H          -0.93640        -2.83390        -3.40510
H          -0.60130        -1.44500        -4.44870
H          -1.97610        -1.40640        -3.35120
H           1.19890         1.59450        -1.39960
H           3.58820         1.75960        -1.02390

