
     RDKit          3D

 44 45  0  0  0  0  0  0  0  0999 V2000
    5.7377    1.5680    0.3797 C   0  0  0  0  0  0  0  0  0  0  0  0
    4.8273    1.1307    1.3804 O   0  0  0  0  0  0  0  0  0  0  0  0
    3.5061    1.0795    1.0342 C   0  0  0  0  0  0  0  0  0  0  0  0
    2.6500    0.6584    2.0507 C   0  0  0  0  0  0  0  0  0  0  0  0
    1.2719    0.5573    1.8329 C   0  0  0  0  0  0  0  0  0  0  0  0
    0.7165    0.8589    0.5824 C   0  0  0  0  0  0  0  0  0  0  0  0
   -0.7726    0.7655    0.2973 C   0  0  0  0  0  0  0  0  0  0  0  0
   -1.5084    1.1306    1.4776 O   0  0  0  0  0  0  0  0  0  0  0  0
   -2.0954    0.0374    2.0346 C   0  0  0  0  0  0  0  0  0  0  0  0
   -2.6773    0.0538    3.1079 O   0  0  0  0  0  0  0  0  0  0  0  0
   -1.9211   -1.1780    1.1611 C   0  0  0  0  0  0  0  0  0  0  0  0
   -1.0546   -2.2147    1.8657 C   0  0  0  0  0  0  0  0  0  0  0  0
   -1.3970   -0.5776   -0.1665 C   0  0  0  0  0  0  0  0  0  0  0  0
   -2.6474   -0.2390   -1.0240 C   0  0  0  0  0  0  0  0  0  0  0  0
   -0.4601   -1.5463   -0.9431 C   0  0  0  0  0  0  0  0  0  0  0  0
   -0.0307   -1.1357   -2.3725 C   0  0  0  0  0  0  0  0  0  0  0  0
    1.4026   -1.6108   -2.6472 C   0  0  0  0  0  0  0  0  0  0  0  0
   -0.9412   -1.7392   -3.4494 C   0  0  0  0  0  0  0  0  0  0  0  0
    1.5871    1.3086   -0.4240 C   0  0  0  0  0  0  0  0  0  0  0  0
    2.9672    1.4119   -0.2052 C   0  0  0  0  0  0  0  0  0  0  0  0
    5.7344    0.8902   -0.4804 H   0  0  0  0  0  0  0  0  0  0  0  0
    6.7428    1.5520    0.8120 H   0  0  0  0  0  0  0  0  0  0  0  0
    5.5233    2.5973    0.0735 H   0  0  0  0  0  0  0  0  0  0  0  0
    3.0569    0.4155    3.0297 H   0  0  0  0  0  0  0  0  0  0  0  0
    0.6460    0.2572    2.6698 H   0  0  0  0  0  0  0  0  0  0  0  0
   -0.9994    1.5490   -0.4378 H   0  0  0  0  0  0  0  0  0  0  0  0
   -2.9151   -1.6177    1.0091 H   0  0  0  0  0  0  0  0  0  0  0  0
   -0.0274   -1.8767    2.0140 H   0  0  0  0  0  0  0  0  0  0  0  0
   -1.4611   -2.4491    2.8560 H   0  0  0  0  0  0  0  0  0  0  0  0
   -1.0241   -3.1497    1.2975 H   0  0  0  0  0  0  0  0  0  0  0  0
   -3.3736    0.3634   -0.4652 H   0  0  0  0  0  0  0  0  0  0  0  0
   -3.1622   -1.1520   -1.3431 H   0  0  0  0  0  0  0  0  0  0  0  0
   -2.3818    0.3394   -1.9146 H   0  0  0  0  0  0  0  0  0  0  0  0
   -0.9491   -2.5283   -1.0034 H   0  0  0  0  0  0  0  0  0  0  0  0
    0.4401   -1.7114   -0.3386 H   0  0  0  0  0  0  0  0  0  0  0  0
   -0.0514   -0.0464   -2.4747 H   0  0  0  0  0  0  0  0  0  0  0  0
    2.1069   -1.1865   -1.9257 H   0  0  0  0  0  0  0  0  0  0  0  0
    1.7292   -1.3040   -3.6467 H   0  0  0  0  0  0  0  0  0  0  0  0
    1.4768   -2.7022   -2.5864 H   0  0  0  0  0  0  0  0  0  0  0  0
   -0.9364   -2.8339   -3.4051 H   0  0  0  0  0  0  0  0  0  0  0  0
   -0.6013   -1.4450   -4.4487 H   0  0  0  0  0  0  0  0  0  0  0  0
   -1.9761   -1.4064   -3.3512 H   0  0  0  0  0  0  0  0  0  0  0  0
    1.1989    1.5945   -1.3996 H   0  0  0  0  0  0  0  0  0  0  0  0
    3.5882    1.7596   -1.0239 H   0  0  0  0  0  0  0  0  0  0  0  0
  1  2  1  0
  2  3  1  0
  3  4  2  0
  4  5  1  0
  5  6  2  0
  6  7  1  0
  7  8  1  0
  8  9  1  0
  9 10  2  0
  9 11  1  0
 11 12  1  0
 11 13  1  0
 13 14  1  0
 13 15  1  0
 15 16  1  0
 16 17  1  0
 16 18  1  0
  6 19  1  0
 19 20  2  0
 20  3  1  0
 13  7  1  0
  1 21  1  0
  1 22  1  0
  1 23  1  0
  4 24  1  0
  5 25  1  0
  7 26  1  0
 11 27  1  0
 12 28  1  0
 12 29  1  0
 12 30  1  0
 14 31  1  0
 14 32  1  0
 14 33  1  0
 15 34  1  0
 15 35  1  0
 16 36  1  0
 17 37  1  0
 17 38  1  0
 17 39  1  0
 18 40  1  0
 18 41  1  0
 18 42  1  0
 19 43  1  0
 20 44  1  0
M  END
>  <energy_abs>  (203) 
47.9507457504129

>  <SMILES>  (203) 
COc1ccc(C2OC(=O)C(C)C2(C)CC(C)C)cc1

>  <cluster_no>  (203) 
203

>  <ccdc_id>  (203) 
33

>  <initial_conformation_id>  (203) 
74

>  <minimize_method>  (203) 
MMFF

$$$$
