%NProcShared=1
%Mem=10GB

#p B3LYP/6-31G* opt freq

test

0  1
C           6.01730         2.21580         0.67340
O           5.25970         1.39970         1.55730
C           3.92720         1.26250         1.28370
C           3.24560         1.83200         0.21010
C           1.87290         1.60700         0.04700
C           1.15700         0.80620         0.95010
C          -0.32680         0.56870         0.74400
O          -0.97750         0.32960         1.99360
C          -2.13350        -0.34270         1.75970
O          -2.98910        -0.53060         2.60990
C          -2.20220        -0.80590         0.31990
C          -2.77340        -2.22070         0.29720
C          -0.75390        -0.61310        -0.18410
C           0.12210        -1.85790         0.07630
C          -0.62290        -0.12800        -1.66290
C          -1.22080        -0.87280        -2.87680
C          -0.78070        -2.32240        -3.03710
C          -2.73550        -0.72510        -3.01070
C           1.85260         0.24590         2.03050
C           3.22250         0.47120         2.19120
H           7.05080         2.22830         1.03290
H           5.65110         3.24780         0.67690
H           6.02240         1.80090        -0.33990
H           3.74950         2.45840        -0.51830
H           1.36700         2.07200        -0.79680
H          -0.75380         1.51590         0.38290
H          -2.87800        -0.11480        -0.19780
H          -2.27170        -2.87690         1.01730
H          -3.83290        -2.20260         0.57820
H          -2.70680        -2.68350        -0.68700
H           1.14910        -1.70530        -0.27310
H          -0.25360        -2.74790        -0.43130
H           0.16690        -2.10270         1.14360
H           0.45120        -0.02800        -1.87400
H          -1.01320         0.89850        -1.71940
H          -0.80780        -0.34600        -3.75050
H           0.30110        -2.42250        -2.90380
H          -1.28550        -2.99030        -2.33730
H          -1.02030        -2.68040        -4.04490
H          -3.28410        -1.30970        -2.27240
H          -3.03740         0.32260        -2.91000
H          -3.06330        -1.06690        -3.99910
H           1.33550        -0.37150         2.76270
H           3.74370         0.02690         3.03600

