
     RDKit          3D

 44 45  0  0  0  0  0  0  0  0999 V2000
    6.0173    2.2158    0.6734 C   0  0  0  0  0  0  0  0  0  0  0  0
    5.2597    1.3997    1.5573 O   0  0  0  0  0  0  0  0  0  0  0  0
    3.9272    1.2625    1.2837 C   0  0  0  0  0  0  0  0  0  0  0  0
    3.2456    1.8320    0.2101 C   0  0  0  0  0  0  0  0  0  0  0  0
    1.8729    1.6070    0.0470 C   0  0  0  0  0  0  0  0  0  0  0  0
    1.1570    0.8062    0.9501 C   0  0  0  0  0  0  0  0  0  0  0  0
   -0.3268    0.5687    0.7440 C   0  0  0  0  0  0  0  0  0  0  0  0
   -0.9775    0.3296    1.9936 O   0  0  0  0  0  0  0  0  0  0  0  0
   -2.1335   -0.3427    1.7597 C   0  0  0  0  0  0  0  0  0  0  0  0
   -2.9891   -0.5306    2.6099 O   0  0  0  0  0  0  0  0  0  0  0  0
   -2.2022   -0.8059    0.3199 C   0  0  0  0  0  0  0  0  0  0  0  0
   -2.7734   -2.2207    0.2972 C   0  0  0  0  0  0  0  0  0  0  0  0
   -0.7539   -0.6131   -0.1841 C   0  0  0  0  0  0  0  0  0  0  0  0
    0.1221   -1.8579    0.0763 C   0  0  0  0  0  0  0  0  0  0  0  0
   -0.6229   -0.1280   -1.6629 C   0  0  0  0  0  0  0  0  0  0  0  0
   -1.2208   -0.8728   -2.8768 C   0  0  0  0  0  0  0  0  0  0  0  0
   -0.7807   -2.3224   -3.0371 C   0  0  0  0  0  0  0  0  0  0  0  0
   -2.7355   -0.7251   -3.0107 C   0  0  0  0  0  0  0  0  0  0  0  0
    1.8526    0.2459    2.0305 C   0  0  0  0  0  0  0  0  0  0  0  0
    3.2225    0.4712    2.1912 C   0  0  0  0  0  0  0  0  0  0  0  0
    7.0508    2.2283    1.0329 H   0  0  0  0  0  0  0  0  0  0  0  0
    5.6511    3.2478    0.6769 H   0  0  0  0  0  0  0  0  0  0  0  0
    6.0224    1.8009   -0.3399 H   0  0  0  0  0  0  0  0  0  0  0  0
    3.7495    2.4584   -0.5183 H   0  0  0  0  0  0  0  0  0  0  0  0
    1.3670    2.0720   -0.7968 H   0  0  0  0  0  0  0  0  0  0  0  0
   -0.7538    1.5159    0.3829 H   0  0  0  0  0  0  0  0  0  0  0  0
   -2.8780   -0.1148   -0.1978 H   0  0  0  0  0  0  0  0  0  0  0  0
   -2.2717   -2.8769    1.0173 H   0  0  0  0  0  0  0  0  0  0  0  0
   -3.8329   -2.2026    0.5782 H   0  0  0  0  0  0  0  0  0  0  0  0
   -2.7068   -2.6835   -0.6870 H   0  0  0  0  0  0  0  0  0  0  0  0
    1.1491   -1.7053   -0.2731 H   0  0  0  0  0  0  0  0  0  0  0  0
   -0.2536   -2.7479   -0.4313 H   0  0  0  0  0  0  0  0  0  0  0  0
    0.1669   -2.1027    1.1436 H   0  0  0  0  0  0  0  0  0  0  0  0
    0.4512   -0.0280   -1.8740 H   0  0  0  0  0  0  0  0  0  0  0  0
   -1.0132    0.8985   -1.7194 H   0  0  0  0  0  0  0  0  0  0  0  0
   -0.8078   -0.3460   -3.7505 H   0  0  0  0  0  0  0  0  0  0  0  0
    0.3011   -2.4225   -2.9038 H   0  0  0  0  0  0  0  0  0  0  0  0
   -1.2855   -2.9903   -2.3373 H   0  0  0  0  0  0  0  0  0  0  0  0
   -1.0203   -2.6804   -4.0449 H   0  0  0  0  0  0  0  0  0  0  0  0
   -3.2841   -1.3097   -2.2724 H   0  0  0  0  0  0  0  0  0  0  0  0
   -3.0374    0.3226   -2.9100 H   0  0  0  0  0  0  0  0  0  0  0  0
   -3.0633   -1.0669   -3.9991 H   0  0  0  0  0  0  0  0  0  0  0  0
    1.3355   -0.3715    2.7627 H   0  0  0  0  0  0  0  0  0  0  0  0
    3.7437    0.0269    3.0360 H   0  0  0  0  0  0  0  0  0  0  0  0
  1  2  1  0
  2  3  1  0
  3  4  2  0
  4  5  1  0
  5  6  2  0
  6  7  1  0
  7  8  1  0
  8  9  1  0
  9 10  2  0
  9 11  1  0
 11 12  1  0
 11 13  1  0
 13 14  1  0
 13 15  1  0
 15 16  1  0
 16 17  1  0
 16 18  1  0
  6 19  1  0
 19 20  2  0
 20  3  1  0
 13  7  1  0
  1 21  1  0
  1 22  1  0
  1 23  1  0
  4 24  1  0
  5 25  1  0
  7 26  1  0
 11 27  1  0
 12 28  1  0
 12 29  1  0
 12 30  1  0
 14 31  1  0
 14 32  1  0
 14 33  1  0
 15 34  1  0
 15 35  1  0
 16 36  1  0
 17 37  1  0
 17 38  1  0
 17 39  1  0
 18 40  1  0
 18 41  1  0
 18 42  1  0
 19 43  1  0
 20 44  1  0
M  END
>  <energy_abs>  (204) 
48.92048556828336

>  <SMILES>  (204) 
COc1ccc(C2OC(=O)C(C)C2(C)CC(C)C)cc1

>  <cluster_no>  (204) 
204

>  <ccdc_id>  (204) 
33

>  <initial_conformation_id>  (204) 
72

>  <minimize_method>  (204) 
MMFF

$$$$
