
     RDKit          3D

 44 45  0  0  0  0  0  0  0  0999 V2000
    6.0672    1.6984    1.1179 C   0  0  0  0  0  0  0  0  0  0  0  0
    4.9965    1.4651    2.0238 O   0  0  0  0  0  0  0  0  0  0  0  0
    3.7632    1.2400    1.4790 C   0  0  0  0  0  0  0  0  0  0  0  0
    3.4599    1.1961    0.1208 C   0  0  0  0  0  0  0  0  0  0  0  0
    2.1462    0.9529   -0.3002 C   0  0  0  0  0  0  0  0  0  0  0  0
    1.1094    0.7423    0.6244 C   0  0  0  0  0  0  0  0  0  0  0  0
   -0.3000    0.4671    0.1184 C   0  0  0  0  0  0  0  0  0  0  0  0
   -1.2760    0.8995    1.0852 O   0  0  0  0  0  0  0  0  0  0  0  0
   -1.7941   -0.1802    1.7373 C   0  0  0  0  0  0  0  0  0  0  0  0
   -2.6164   -0.1041    2.6348 O   0  0  0  0  0  0  0  0  0  0  0  0
   -1.1596   -1.4423    1.2146 C   0  0  0  0  0  0  0  0  0  0  0  0
   -2.0952   -2.6382    1.3081 C   0  0  0  0  0  0  0  0  0  0  0  0
   -0.6831   -1.0054   -0.1946 C   0  0  0  0  0  0  0  0  0  0  0  0
    0.4762   -1.9004   -0.6565 C   0  0  0  0  0  0  0  0  0  0  0  0
   -1.8584   -1.0638   -1.2372 C   0  0  0  0  0  0  0  0  0  0  0  0
   -1.5309   -0.9808   -2.7502 C   0  0  0  0  0  0  0  0  0  0  0  0
   -0.8937    0.3322   -3.1927 C   0  0  0  0  0  0  0  0  0  0  0  0
   -2.8197   -1.2029   -3.5551 C   0  0  0  0  0  0  0  0  0  0  0  0
    1.4283    0.8006    1.9883 C   0  0  0  0  0  0  0  0  0  0  0  0
    2.7407    1.0433    2.4066 C   0  0  0  0  0  0  0  0  0  0  0  0
    5.8877    2.5957    0.5165 H   0  0  0  0  0  0  0  0  0  0  0  0
    6.9731    1.8688    1.7076 H   0  0  0  0  0  0  0  0  0  0  0  0
    6.2434    0.8244    0.4820 H   0  0  0  0  0  0  0  0  0  0  0  0
    4.2188    1.3486   -0.6393 H   0  0  0  0  0  0  0  0  0  0  0  0
    1.9431    0.9307   -1.3686 H   0  0  0  0  0  0  0  0  0  0  0  0
   -0.4592    1.1142   -0.7468 H   0  0  0  0  0  0  0  0  0  0  0  0
   -0.2922   -1.6437    1.8573 H   0  0  0  0  0  0  0  0  0  0  0  0
   -1.6930   -3.5020    0.7706 H   0  0  0  0  0  0  0  0  0  0  0  0
   -3.0966   -2.4134    0.9265 H   0  0  0  0  0  0  0  0  0  0  0  0
   -2.2247   -2.9310    2.3564 H   0  0  0  0  0  0  0  0  0  0  0  0
    0.1194   -2.9097   -0.8905 H   0  0  0  0  0  0  0  0  0  0  0  0
    1.2442   -2.0082    0.1172 H   0  0  0  0  0  0  0  0  0  0  0  0
    0.9662   -1.5044   -1.5508 H   0  0  0  0  0  0  0  0  0  0  0  0
   -2.3721   -2.0245   -1.1147 H   0  0  0  0  0  0  0  0  0  0  0  0
   -2.6042   -0.2955   -0.9926 H   0  0  0  0  0  0  0  0  0  0  0  0
   -0.8496   -1.7985   -3.0137 H   0  0  0  0  0  0  0  0  0  0  0  0
    0.1141    0.4404   -2.7867 H   0  0  0  0  0  0  0  0  0  0  0  0
   -0.7973    0.3698   -4.2836 H   0  0  0  0  0  0  0  0  0  0  0  0
   -1.4950    1.1928   -2.8821 H   0  0  0  0  0  0  0  0  0  0  0  0
   -3.5548   -0.4166   -3.3522 H   0  0  0  0  0  0  0  0  0  0  0  0
   -2.6128   -1.2047   -4.6307 H   0  0  0  0  0  0  0  0  0  0  0  0
   -3.2754   -2.1671   -3.3057 H   0  0  0  0  0  0  0  0  0  0  0  0
    0.6658    0.6717    2.7529 H   0  0  0  0  0  0  0  0  0  0  0  0
    2.9649    1.0856    3.4702 H   0  0  0  0  0  0  0  0  0  0  0  0
  1  2  1  0
  2  3  1  0
  3  4  2  0
  4  5  1  0
  5  6  2  0
  6  7  1  0
  7  8  1  0
  8  9  1  0
  9 10  2  0
  9 11  1  0
 11 12  1  0
 11 13  1  0
 13 14  1  0
 13 15  1  0
 15 16  1  0
 16 17  1  0
 16 18  1  0
  6 19  1  0
 19 20  2  0
 20  3  1  0
 13  7  1  0
  1 21  1  0
  1 22  1  0
  1 23  1  0
  4 24  1  0
  5 25  1  0
  7 26  1  0
 11 27  1  0
 12 28  1  0
 12 29  1  0
 12 30  1  0
 14 31  1  0
 14 32  1  0
 14 33  1  0
 15 34  1  0
 15 35  1  0
 16 36  1  0
 17 37  1  0
 17 38  1  0
 17 39  1  0
 18 40  1  0
 18 41  1  0
 18 42  1  0
 19 43  1  0
 20 44  1  0
M  END
>  <energy_abs>  (205) 
45.705664648075576

>  <SMILES>  (205) 
COc1ccc(C2OC(=O)C(C)C2(C)CC(C)C)cc1

>  <cluster_no>  (205) 
205

>  <ccdc_id>  (205) 
33

>  <initial_conformation_id>  (205) 
71

>  <minimize_method>  (205) 
MMFF

$$$$
