#Put Keywords Here, check Charge and Multiplicity.

 

0  1
C           6.06720         1.69840         1.11790
O           4.99650         1.46510         2.02380
C           3.76320         1.24000         1.47900
C           3.45990         1.19610         0.12080
C           2.14620         0.95290        -0.30020
C           1.10940         0.74230         0.62440
C          -0.30000         0.46710         0.11840
O          -1.27600         0.89950         1.08520
C          -1.79410        -0.18020         1.73730
O          -2.61640        -0.10410         2.63480
C          -1.15960        -1.44230         1.21460
C          -2.09520        -2.63820         1.30810
C          -0.68310        -1.00540        -0.19460
C           0.47620        -1.90040        -0.65650
C          -1.85840        -1.06380        -1.23720
C          -1.53090        -0.98080        -2.75020
C          -0.89370         0.33220        -3.19270
C          -2.81970        -1.20290        -3.55510
C           1.42830         0.80060         1.98830
C           2.74070         1.04330         2.40660
H           5.88770         2.59570         0.51650
H           6.97310         1.86880         1.70760
H           6.24340         0.82440         0.48200
H           4.21880         1.34860        -0.63930
H           1.94310         0.93070        -1.36860
H          -0.45920         1.11420        -0.74680
H          -0.29220        -1.64370         1.85730
H          -1.69300        -3.50200         0.77060
H          -3.09660        -2.41340         0.92650
H          -2.22470        -2.93100         2.35640
H           0.11940        -2.90970        -0.89050
H           1.24420        -2.00820         0.11720
H           0.96620        -1.50440        -1.55080
H          -2.37210        -2.02450        -1.11470
H          -2.60420        -0.29550        -0.99260
H          -0.84960        -1.79850        -3.01370
H           0.11410         0.44040        -2.78670
H          -0.79730         0.36980        -4.28360
H          -1.49500         1.19280        -2.88210
H          -3.55480        -0.41660        -3.35220
H          -2.61280        -1.20470        -4.63070
H          -3.27540        -2.16710        -3.30570
H           0.66580         0.67170         2.75290
H           2.96490         1.08560         3.47020

