
     RDKit          3D

 44 45  0  0  0  0  0  0  0  0999 V2000
    5.6371    2.5226    0.8906 C   0  0  0  0  0  0  0  0  0  0  0  0
    5.1528    1.2472    0.4905 O   0  0  0  0  0  0  0  0  0  0  0  0
    3.8345    0.9814    0.7353 C   0  0  0  0  0  0  0  0  0  0  0  0
    3.4064   -0.2813    0.3277 C   0  0  0  0  0  0  0  0  0  0  0  0
    2.0806   -0.6832    0.5159 C   0  0  0  0  0  0  0  0  0  0  0  0
    1.1450    0.1773    1.1063 C   0  0  0  0  0  0  0  0  0  0  0  0
   -0.3004   -0.2295    1.3222 C   0  0  0  0  0  0  0  0  0  0  0  0
   -0.4860   -1.6426    1.1588 O   0  0  0  0  0  0  0  0  0  0  0  0
   -1.7722   -1.8924    0.7883 C   0  0  0  0  0  0  0  0  0  0  0  0
   -2.2417   -3.0122    0.6661 O   0  0  0  0  0  0  0  0  0  0  0  0
   -2.5265   -0.6026    0.5879 C   0  0  0  0  0  0  0  0  0  0  0  0
   -3.4600   -0.4177    1.7836 C   0  0  0  0  0  0  0  0  0  0  0  0
   -1.3834    0.4201    0.4293 C   0  0  0  0  0  0  0  0  0  0  0  0
   -1.7764    1.8181    0.9537 C   0  0  0  0  0  0  0  0  0  0  0  0
   -0.9689    0.6150   -1.0737 C   0  0  0  0  0  0  0  0  0  0  0  0
   -0.5213   -0.5929   -1.9335 C   0  0  0  0  0  0  0  0  0  0  0  0
   -1.6810   -1.2607   -2.6789 C   0  0  0  0  0  0  0  0  0  0  0  0
    0.5069   -0.1240   -2.9745 C   0  0  0  0  0  0  0  0  0  0  0  0
    1.5929    1.4376    1.5325 C   0  0  0  0  0  0  0  0  0  0  0  0
    2.9219    1.8393    1.3444 C   0  0  0  0  0  0  0  0  0  0  0  0
    5.1179    3.3269    0.3590 H   0  0  0  0  0  0  0  0  0  0  0  0
    6.6968    2.5769    0.6230 H   0  0  0  0  0  0  0  0  0  0  0  0
    5.5607    2.6513    1.9754 H   0  0  0  0  0  0  0  0  0  0  0  0
    4.1123   -0.9647   -0.1387 H   0  0  0  0  0  0  0  0  0  0  0  0
    1.7935   -1.6825    0.1942 H   0  0  0  0  0  0  0  0  0  0  0  0
   -0.5137   -0.0363    2.3835 H   0  0  0  0  0  0  0  0  0  0  0  0
   -3.1306   -0.6547   -0.3210 H   0  0  0  0  0  0  0  0  0  0  0  0
   -2.9118   -0.3694    2.7305 H   0  0  0  0  0  0  0  0  0  0  0  0
   -4.1566   -1.2605    1.8598 H   0  0  0  0  0  0  0  0  0  0  0  0
   -4.0594    0.4921    1.6817 H   0  0  0  0  0  0  0  0  0  0  0  0
   -0.9988    2.5607    0.7472 H   0  0  0  0  0  0  0  0  0  0  0  0
   -1.9454    1.8213    2.0357 H   0  0  0  0  0  0  0  0  0  0  0  0
   -2.6935    2.1714    0.4686 H   0  0  0  0  0  0  0  0  0  0  0  0
   -0.1570    1.3557   -1.0827 H   0  0  0  0  0  0  0  0  0  0  0  0
   -1.8010    1.1113   -1.5937 H   0  0  0  0  0  0  0  0  0  0  0  0
   -0.0291   -1.3497   -1.3206 H   0  0  0  0  0  0  0  0  0  0  0  0
   -1.3081   -2.0355   -3.3583 H   0  0  0  0  0  0  0  0  0  0  0  0
   -2.3792   -1.7513   -1.9993 H   0  0  0  0  0  0  0  0  0  0  0  0
   -2.2408   -0.5348   -3.2784 H   0  0  0  0  0  0  0  0  0  0  0  0
    1.3866    0.3105   -2.4881 H   0  0  0  0  0  0  0  0  0  0  0  0
    0.0793    0.6320   -3.6422 H   0  0  0  0  0  0  0  0  0  0  0  0
    0.8520   -0.9631   -3.5881 H   0  0  0  0  0  0  0  0  0  0  0  0
    0.9134    2.1256    2.0302 H   0  0  0  0  0  0  0  0  0  0  0  0
    3.2099    2.8262    1.6908 H   0  0  0  0  0  0  0  0  0  0  0  0
  1  2  1  0
  2  3  1  0
  3  4  2  0
  4  5  1  0
  5  6  2  0
  6  7  1  0
  7  8  1  0
  8  9  1  0
  9 10  2  0
  9 11  1  0
 11 12  1  0
 11 13  1  0
 13 14  1  0
 13 15  1  0
 15 16  1  0
 16 17  1  0
 16 18  1  0
  6 19  1  0
 19 20  2  0
 20  3  1  0
 13  7  1  0
  1 21  1  0
  1 22  1  0
  1 23  1  0
  4 24  1  0
  5 25  1  0
  7 26  1  0
 11 27  1  0
 12 28  1  0
 12 29  1  0
 12 30  1  0
 14 31  1  0
 14 32  1  0
 14 33  1  0
 15 34  1  0
 15 35  1  0
 16 36  1  0
 17 37  1  0
 17 38  1  0
 17 39  1  0
 18 40  1  0
 18 41  1  0
 18 42  1  0
 19 43  1  0
 20 44  1  0
M  END
>  <energy_abs>  (207) 
46.69803101514284

>  <SMILES>  (207) 
COc1ccc(C2OC(=O)C(C)C2(C)CC(C)C)cc1

>  <cluster_no>  (207) 
207

>  <ccdc_id>  (207) 
33

>  <initial_conformation_id>  (207) 
68

>  <minimize_method>  (207) 
MMFF

$$$$
