%NProcShared=1
%Mem=10GB

#p B3LYP/6-31G* opt freq

test

0  1
C           5.75950         0.76230         1.45810
O           4.82580         1.60270         0.79140
C           3.50940         1.24340         0.86790
C           2.99200         0.15740         1.56700
C           1.61250        -0.09470         1.56320
C           0.71940         0.71580         0.84570
C          -0.78280         0.47750         0.82210
O          -1.19870         0.08430         2.14310
C          -1.48310        -1.24550         2.17560
O          -1.71340        -1.86570         3.20160
C          -1.46670        -1.83640         0.78860
C          -0.35340        -2.86900         0.65160
C          -1.41620        -0.58140        -0.12390
C          -2.89830        -0.17530        -0.37630
C          -0.69670        -0.84910        -1.47840
C          -1.06320        -0.00230        -2.72160
C          -0.70560         1.47380        -2.60850
C          -0.36800        -0.58760        -3.95920
C           1.25620         1.82810         0.18100
C           2.63190         2.08140         0.18330
H           5.75030        -0.24870         1.03650
H           5.57490         0.74290         2.53770
H           6.75840         1.18040         1.29980
H           3.62750        -0.50850         2.14110
H           1.25480        -0.92790         2.16320
H          -1.25910         1.45070         0.64720
H          -2.42220        -2.36040         0.65460
H          -0.51570        -3.49500        -0.23220
H           0.63570        -2.41880         0.55410
H          -0.32660        -3.53650         1.51970
H          -3.46290        -0.08750         0.55950
H          -2.97800         0.79290        -0.87930
H          -3.40820        -0.92320        -0.99470
H           0.39080        -0.83380        -1.33990
H          -0.93630        -1.88280        -1.76410
H          -2.14160        -0.08100        -2.90310
H          -1.03380         2.01630        -3.50210
H          -1.19230         1.94630        -1.75300
H           0.37620         1.61200        -2.52490
H          -0.64620        -0.03210        -4.86160
H          -0.65680        -1.63290        -4.11220
H           0.72190        -0.54760        -3.85890
H           0.60880         2.53220        -0.33500
H           3.01990         2.94760        -0.34680

