
     RDKit          3D

 44 45  0  0  0  0  0  0  0  0999 V2000
    6.0253    1.5630    0.9946 C   0  0  0  0  0  0  0  0  0  0  0  0
    5.0533    1.0935    1.9199 O   0  0  0  0  0  0  0  0  0  0  0  0
    3.7735    0.9610    1.4587 C   0  0  0  0  0  0  0  0  0  0  0  0
    2.8533    0.5127    2.4053 C   0  0  0  0  0  0  0  0  0  0  0  0
    1.5080    0.3308    2.0685 C   0  0  0  0  0  0  0  0  0  0  0  0
    1.0513    0.5802    0.7664 C   0  0  0  0  0  0  0  0  0  0  0  0
   -0.4049    0.4037    0.3591 C   0  0  0  0  0  0  0  0  0  0  0  0
   -1.2503    0.3719    1.5223 O   0  0  0  0  0  0  0  0  0  0  0  0
   -1.6732   -0.8970    1.7662 C   0  0  0  0  0  0  0  0  0  0  0  0
   -2.3095   -1.2222    2.7559 O   0  0  0  0  0  0  0  0  0  0  0  0
   -1.2351   -1.8287    0.6684 C   0  0  0  0  0  0  0  0  0  0  0  0
   -0.1824   -2.7947    1.1999 C   0  0  0  0  0  0  0  0  0  0  0  0
   -0.8121   -0.8497   -0.4613 C   0  0  0  0  0  0  0  0  0  0  0  0
    0.2758   -1.4319   -1.3732 C   0  0  0  0  0  0  0  0  0  0  0  0
   -2.1092   -0.5478   -1.3105 C   0  0  0  0  0  0  0  0  0  0  0  0
   -1.9737    0.1116   -2.7051 C   0  0  0  0  0  0  0  0  0  0  0  0
   -3.3540    0.1541   -3.3766 C   0  0  0  0  0  0  0  0  0  0  0  0
   -1.3932    1.5221   -2.6816 C   0  0  0  0  0  0  0  0  0  0  0  0
    1.9851    1.0520   -0.1715 C   0  0  0  0  0  0  0  0  0  0  0  0
    3.3323    1.2347    0.1670 C   0  0  0  0  0  0  0  0  0  0  0  0
    6.1390    0.8689    0.1553 H   0  0  0  0  0  0  0  0  0  0  0  0
    6.9859    1.6145    1.5161 H   0  0  0  0  0  0  0  0  0  0  0  0
    5.7822    2.5715    0.6441 H   0  0  0  0  0  0  0  0  0  0  0  0
    3.1834    0.3082    3.4213 H   0  0  0  0  0  0  0  0  0  0  0  0
    0.8280   -0.0029    2.8498 H   0  0  0  0  0  0  0  0  0  0  0  0
   -0.6869    1.3214   -0.1629 H   0  0  0  0  0  0  0  0  0  0  0  0
   -2.1091   -2.4175    0.3663 H   0  0  0  0  0  0  0  0  0  0  0  0
   -0.5673   -3.3430    2.0673 H   0  0  0  0  0  0  0  0  0  0  0  0
    0.7293   -2.2881    1.5239 H   0  0  0  0  0  0  0  0  0  0  0  0
    0.0877   -3.5350    0.4402 H   0  0  0  0  0  0  0  0  0  0  0  0
    1.1707   -1.7341   -0.8204 H   0  0  0  0  0  0  0  0  0  0  0  0
   -0.0950   -2.3207   -1.8966 H   0  0  0  0  0  0  0  0  0  0  0  0
    0.6021   -0.7140   -2.1310 H   0  0  0  0  0  0  0  0  0  0  0  0
   -2.8104    0.0448   -0.7068 H   0  0  0  0  0  0  0  0  0  0  0  0
   -2.6148   -1.5083   -1.4870 H   0  0  0  0  0  0  0  0  0  0  0  0
   -1.3349   -0.5144   -3.3389 H   0  0  0  0  0  0  0  0  0  0  0  0
   -3.2834    0.5692   -4.3877 H   0  0  0  0  0  0  0  0  0  0  0  0
   -3.7782   -0.8520   -3.4619 H   0  0  0  0  0  0  0  0  0  0  0  0
   -4.0551    0.7715   -2.8045 H   0  0  0  0  0  0  0  0  0  0  0  0
   -0.3465    1.5166   -2.3712 H   0  0  0  0  0  0  0  0  0  0  0  0
   -1.4226    1.9713   -3.6806 H   0  0  0  0  0  0  0  0  0  0  0  0
   -1.9568    2.1745   -2.0066 H   0  0  0  0  0  0  0  0  0  0  0  0
    1.6743    1.2895   -1.1863 H   0  0  0  0  0  0  0  0  0  0  0  0
    4.0065    1.5963   -0.6022 H   0  0  0  0  0  0  0  0  0  0  0  0
  1  2  1  0
  2  3  1  0
  3  4  2  0
  4  5  1  0
  5  6  2  0
  6  7  1  0
  7  8  1  0
  8  9  1  0
  9 10  2  0
  9 11  1  0
 11 12  1  0
 11 13  1  0
 13 14  1  0
 13 15  1  0
 15 16  1  0
 16 17  1  0
 16 18  1  0
  6 19  1  0
 19 20  2  0
 20  3  1  0
 13  7  1  0
  1 21  1  0
  1 22  1  0
  1 23  1  0
  4 24  1  0
  5 25  1  0
  7 26  1  0
 11 27  1  0
 12 28  1  0
 12 29  1  0
 12 30  1  0
 14 31  1  0
 14 32  1  0
 14 33  1  0
 15 34  1  0
 15 35  1  0
 16 36  1  0
 17 37  1  0
 17 38  1  0
 17 39  1  0
 18 40  1  0
 18 41  1  0
 18 42  1  0
 19 43  1  0
 20 44  1  0
M  END
>  <energy_abs>  (209) 
47.09746033526796

>  <SMILES>  (209) 
COc1ccc(C2OC(=O)C(C)C2(C)CC(C)C)cc1

>  <cluster_no>  (209) 
209

>  <ccdc_id>  (209) 
33

>  <initial_conformation_id>  (209) 
65

>  <minimize_method>  (209) 
MMFF

$$$$
