%NProcShared=1
%Mem=10GB

#p B3LYP/6-31G* opt freq

test

0  1
C           6.02530         1.56300         0.99460
O           5.05330         1.09350         1.91990
C           3.77350         0.96100         1.45870
C           2.85330         0.51270         2.40530
C           1.50800         0.33080         2.06850
C           1.05130         0.58020         0.76640
C          -0.40490         0.40370         0.35910
O          -1.25030         0.37190         1.52230
C          -1.67320        -0.89700         1.76620
O          -2.30950        -1.22220         2.75590
C          -1.23510        -1.82870         0.66840
C          -0.18240        -2.79470         1.19990
C          -0.81210        -0.84970        -0.46130
C           0.27580        -1.43190        -1.37320
C          -2.10920        -0.54780        -1.31050
C          -1.97370         0.11160        -2.70510
C          -3.35400         0.15410        -3.37660
C          -1.39320         1.52210        -2.68160
C           1.98510         1.05200        -0.17150
C           3.33230         1.23470         0.16700
H           6.13900         0.86890         0.15530
H           6.98590         1.61450         1.51610
H           5.78220         2.57150         0.64410
H           3.18340         0.30820         3.42130
H           0.82800        -0.00290         2.84980
H          -0.68690         1.32140        -0.16290
H          -2.10910        -2.41750         0.36630
H          -0.56730        -3.34300         2.06730
H           0.72930        -2.28810         1.52390
H           0.08770        -3.53500         0.44020
H           1.17070        -1.73410        -0.82040
H          -0.09500        -2.32070        -1.89660
H           0.60210        -0.71400        -2.13100
H          -2.81040         0.04480        -0.70680
H          -2.61480        -1.50830        -1.48700
H          -1.33490        -0.51440        -3.33890
H          -3.28340         0.56920        -4.38770
H          -3.77820        -0.85200        -3.46190
H          -4.05510         0.77150        -2.80450
H          -0.34650         1.51660        -2.37120
H          -1.42260         1.97130        -3.68060
H          -1.95680         2.17450        -2.00660
H           1.67430         1.28950        -1.18630
H           4.00650         1.59630        -0.60220

