%NProcShared=1
%Mem=10GB

#p B3LYP/6-31G* opt freq

test

0  1
C           5.93730         0.68960         0.34900
O           4.94870         0.26600         1.27890
C           3.64700         0.54310         0.96680
C           3.19700         1.19130        -0.18070
C           1.82710         1.40680        -0.37630
C           0.87930         0.97390         0.56590
C          -0.59320         1.22430         0.30550
O          -1.29100         1.40420         1.55210
C          -2.06400         0.31300         1.81950
O          -2.72490         0.18210         2.83670
C          -1.93890        -0.69970         0.70750
C          -3.24940        -1.43900         0.47500
C          -1.42960         0.16180        -0.45760
C          -2.60390         0.92960        -1.14060
C          -0.69880        -0.60160        -1.60250
C           0.28220        -1.74730        -1.25600
C          -0.41210        -3.11230        -1.18970
C           1.38470        -1.82540        -2.32110
C           1.34730         0.33710         1.72380
C           2.71560         0.12210         1.91610
H           6.91510         0.39880         0.74480
H           5.80840         0.19230        -0.61800
H           5.93380         1.77900         0.23760
H           3.88240         1.54320        -0.94430
H           1.50600         1.91890        -1.28170
H          -0.66060         2.19270        -0.20770
H          -1.17230        -1.40830         1.03820
H          -3.44390        -2.12940         1.30350
H          -4.10550        -0.75720         0.42970
H          -3.22280        -2.02410        -0.44880
H          -3.28590         0.24730        -1.65980
H          -2.22170         1.63440        -1.88870
H          -3.19580         1.50620        -0.42110
H          -0.17300         0.15350        -2.20290
H          -1.45390        -1.01940        -2.28340
H           0.76710        -1.56890        -0.29450
H           0.31820        -3.90680        -0.99960
H          -0.92140        -3.34690        -2.13070
H          -1.14910        -3.15930        -0.38660
H           1.94490        -0.88710        -2.37880
H           2.09930        -2.62110        -2.08450
H           0.96510        -2.02990        -3.31220
H           0.66240         0.00330         2.49970
H           3.05810        -0.37530         2.82080

