
     RDKit          3D

 44 45  0  0  0  0  0  0  0  0999 V2000
    5.8253    2.3850    0.8017 C   0  0  0  0  0  0  0  0  0  0  0  0
    5.3153    1.0581    0.7805 O   0  0  0  0  0  0  0  0  0  0  0  0
    3.9636    0.9122    0.9250 C   0  0  0  0  0  0  0  0  0  0  0  0
    3.5139   -0.4084    0.9163 C   0  0  0  0  0  0  0  0  0  0  0  0
    2.1544   -0.7020    1.0537 C   0  0  0  0  0  0  0  0  0  0  0  0
    1.2118    0.3256    1.1982 C   0  0  0  0  0  0  0  0  0  0  0  0
   -0.2699    0.0386    1.3376 C   0  0  0  0  0  0  0  0  0  0  0  0
   -0.4919   -1.2887    1.8276 O   0  0  0  0  0  0  0  0  0  0  0  0
   -1.7421   -1.6852    1.4701 C   0  0  0  0  0  0  0  0  0  0  0  0
   -2.2704   -2.7139    1.8601 O   0  0  0  0  0  0  0  0  0  0  0  0
   -2.3773   -0.6718    0.5496 C   0  0  0  0  0  0  0  0  0  0  0  0
   -3.4555    0.0849    1.3186 C   0  0  0  0  0  0  0  0  0  0  0  0
   -1.1601    0.1556    0.0682 C   0  0  0  0  0  0  0  0  0  0  0  0
   -1.4756    1.6282   -0.2334 C   0  0  0  0  0  0  0  0  0  0  0  0
   -0.4956   -0.5306   -1.1779 C   0  0  0  0  0  0  0  0  0  0  0  0
   -1.0794   -0.2438   -2.5855 C   0  0  0  0  0  0  0  0  0  0  0  0
   -2.5228   -0.6983   -2.7829 C   0  0  0  0  0  0  0  0  0  0  0  0
   -0.1948   -0.9190   -3.6430 C   0  0  0  0  0  0  0  0  0  0  0  0
    1.6743    1.6506    1.2126 C   0  0  0  0  0  0  0  0  0  0  0  0
    3.0373    1.9423    1.0755 C   0  0  0  0  0  0  0  0  0  0  0  0
    6.9115    2.3277    0.6823 H   0  0  0  0  0  0  0  0  0  0  0  0
    5.4294    2.9733   -0.0328 H   0  0  0  0  0  0  0  0  0  0  0  0
    5.6211    2.8715    1.7612 H   0  0  0  0  0  0  0  0  0  0  0  0
    4.2291   -1.2199    0.8039 H   0  0  0  0  0  0  0  0  0  0  0  0
    1.8420   -1.7446    1.0444 H   0  0  0  0  0  0  0  0  0  0  0  0
   -0.6408    0.7047    2.1302 H   0  0  0  0  0  0  0  0  0  0  0  0
   -2.8415   -1.2264   -0.2674 H   0  0  0  0  0  0  0  0  0  0  0  0
   -4.2128   -0.6090    1.7008 H   0  0  0  0  0  0  0  0  0  0  0  0
   -3.9668    0.8062    0.6739 H   0  0  0  0  0  0  0  0  0  0  0  0
   -3.0471    0.6188    2.1830 H   0  0  0  0  0  0  0  0  0  0  0  0
   -1.7610    2.1782    0.6700 H   0  0  0  0  0  0  0  0  0  0  0  0
   -0.6064    2.1396   -0.6605 H   0  0  0  0  0  0  0  0  0  0  0  0
   -2.3009    1.7265   -0.9453 H   0  0  0  0  0  0  0  0  0  0  0  0
    0.5484   -0.2001   -1.2318 H   0  0  0  0  0  0  0  0  0  0  0  0
   -0.4539   -1.6171   -1.0224 H   0  0  0  0  0  0  0  0  0  0  0  0
   -1.0328    0.8350   -2.7765 H   0  0  0  0  0  0  0  0  0  0  0  0
   -2.8378   -0.5474   -3.8216 H   0  0  0  0  0  0  0  0  0  0  0  0
   -3.2130   -0.1239   -2.1594 H   0  0  0  0  0  0  0  0  0  0  0  0
   -2.6405   -1.7621   -2.5519 H   0  0  0  0  0  0  0  0  0  0  0  0
   -0.1946   -2.0079   -3.5237 H   0  0  0  0  0  0  0  0  0  0  0  0
   -0.5494   -0.6884   -4.6534 H   0  0  0  0  0  0  0  0  0  0  0  0
    0.8401   -0.5685   -3.5685 H   0  0  0  0  0  0  0  0  0  0  0  0
    0.9762    2.4759    1.3367 H   0  0  0  0  0  0  0  0  0  0  0  0
    3.3397    2.9839    1.0929 H   0  0  0  0  0  0  0  0  0  0  0  0
  1  2  1  0
  2  3  1  0
  3  4  2  0
  4  5  1  0
  5  6  2  0
  6  7  1  0
  7  8  1  0
  8  9  1  0
  9 10  2  0
  9 11  1  0
 11 12  1  0
 11 13  1  0
 13 14  1  0
 13 15  1  0
 15 16  1  0
 16 17  1  0
 16 18  1  0
  6 19  1  0
 19 20  2  0
 20  3  1  0
 13  7  1  0
  1 21  1  0
  1 22  1  0
  1 23  1  0
  4 24  1  0
  5 25  1  0
  7 26  1  0
 11 27  1  0
 12 28  1  0
 12 29  1  0
 12 30  1  0
 14 31  1  0
 14 32  1  0
 14 33  1  0
 15 34  1  0
 15 35  1  0
 16 36  1  0
 17 37  1  0
 17 38  1  0
 17 39  1  0
 18 40  1  0
 18 41  1  0
 18 42  1  0
 19 43  1  0
 20 44  1  0
M  END
>  <energy_abs>  (210) 
44.605595148127975

>  <SMILES>  (210) 
COc1ccc(C2OC(=O)C(C)C2(C)CC(C)C)cc1

>  <cluster_no>  (210) 
210

>  <ccdc_id>  (210) 
33

>  <initial_conformation_id>  (210) 
64

>  <minimize_method>  (210) 
MMFF

$$$$
