%NProcShared=1
%Mem=10GB

#p B3LYP/6-31G* opt freq

test

0  1
C           5.80800         1.88240         0.14720
O           4.76200         2.00590         1.10230
C           3.64600         1.24310         0.89900
C           2.65550         1.38460         1.87020
C           1.46050         0.66460         1.78310
C           1.21950        -0.20360         0.70870
C          -0.06480        -0.99850         0.59370
O          -0.35420        -1.56440         1.88360
C          -1.69220        -1.76890         2.00740
O          -2.21630        -2.30820         2.96840
C          -2.41700        -1.26790         0.78430
C          -2.84560        -2.48100        -0.03690
C          -1.37060        -0.29220         0.15790
C          -1.60650         1.07190         0.85150
C          -1.55880        -0.17350        -1.38320
C          -0.55240         0.59570        -2.26830
C          -0.97770         0.44630        -3.73880
C          -0.40470         2.08040        -1.95270
C           2.23590        -0.35940        -0.24620
C           3.43380         0.36200        -0.15860
H           6.61980         2.54970         0.45240
H           6.20560         0.86230         0.12660
H           5.47410         2.19740        -0.84690
H           2.81760         2.05580         2.71030
H           0.72410         0.78300         2.57520
H           0.12910        -1.85610        -0.06550
H          -3.31170        -0.72120         1.10570
H          -1.98760        -3.06730        -0.38260
H          -3.43940        -2.18070        -0.90570
H          -3.46910        -3.15220         0.56510
H          -0.81940         1.79760         0.65410
H          -1.66970         0.97140         1.94130
H          -2.55190         1.51600         0.51810
H          -1.57500        -1.19020        -1.79560
H          -2.56270         0.23400        -1.56970
H           0.42930         0.12460        -2.18580
H          -1.95290         0.91180        -3.91890
H          -0.24810         0.91750        -4.40630
H          -1.04670        -0.60960        -4.02150
H           0.09940         2.60880        -2.76990
H           0.21540         2.23630        -1.06750
H          -1.37770         2.55720        -1.79780
H           2.11100        -1.05410        -1.07460
H           4.18010         0.20540        -0.93010

