
     RDKit          3D

 44 45  0  0  0  0  0  0  0  0999 V2000
    5.3381    1.9511    3.1925 C   0  0  0  0  0  0  0  0  0  0  0  0
    5.0946    1.7198    1.8107 O   0  0  0  0  0  0  0  0  0  0  0  0
    3.9370    1.0674    1.4890 C   0  0  0  0  0  0  0  0  0  0  0  0
    3.7517    0.8435    0.1251 C   0  0  0  0  0  0  0  0  0  0  0  0
    2.6097    0.1871   -0.3419 C   0  0  0  0  0  0  0  0  0  0  0  0
    1.6162   -0.2515    0.5479 C   0  0  0  0  0  0  0  0  0  0  0  0
    0.3891   -0.9618    0.0010 C   0  0  0  0  0  0  0  0  0  0  0  0
   -0.2010   -1.7944    1.0110 O   0  0  0  0  0  0  0  0  0  0  0  0
   -1.3686   -1.2547    1.4503 C   0  0  0  0  0  0  0  0  0  0  0  0
   -2.0107   -1.7027    2.3872 O   0  0  0  0  0  0  0  0  0  0  0  0
   -1.7422   -0.0369    0.6465 C   0  0  0  0  0  0  0  0  0  0  0  0
   -1.6511    1.2056    1.5239 C   0  0  0  0  0  0  0  0  0  0  0  0
   -0.7863   -0.1142   -0.5634 C   0  0  0  0  0  0  0  0  0  0  0  0
   -0.3671    1.2527   -1.1215 C   0  0  0  0  0  0  0  0  0  0  0  0
   -1.4609   -0.9633   -1.7054 C   0  0  0  0  0  0  0  0  0  0  0  0
   -2.6860   -0.3236   -2.4053 C   0  0  0  0  0  0  0  0  0  0  0  0
   -3.7832   -1.3721   -2.6168 C   0  0  0  0  0  0  0  0  0  0  0  0
   -2.3086    0.2805   -3.7617 C   0  0  0  0  0  0  0  0  0  0  0  0
    1.8215   -0.0350    1.9185 C   0  0  0  0  0  0  0  0  0  0  0  0
    2.9680    0.6219    2.3849 C   0  0  0  0  0  0  0  0  0  0  0  0
    4.5677    2.5972    3.6263 H   0  0  0  0  0  0  0  0  0  0  0  0
    5.4200    1.0078    3.7426 H   0  0  0  0  0  0  0  0  0  0  0  0
    6.2967    2.4716    3.2803 H   0  0  0  0  0  0  0  0  0  0  0  0
    4.5069    1.1796   -0.5815 H   0  0  0  0  0  0  0  0  0  0  0  0
    2.5057    0.0215   -1.4123 H   0  0  0  0  0  0  0  0  0  0  0  0
    0.7575   -1.6543   -0.7673 H   0  0  0  0  0  0  0  0  0  0  0  0
   -2.7838   -0.1641    0.3329 H   0  0  0  0  0  0  0  0  0  0  0  0
   -1.9822    2.0953    0.9793 H   0  0  0  0  0  0  0  0  0  0  0  0
   -2.2951    1.1025    2.4047 H   0  0  0  0  0  0  0  0  0  0  0  0
   -0.6372    1.3844    1.8906 H   0  0  0  0  0  0  0  0  0  0  0  0
    0.2741    1.1381   -2.0021 H   0  0  0  0  0  0  0  0  0  0  0  0
   -1.2366    1.8485   -1.4170 H   0  0  0  0  0  0  0  0  0  0  0  0
    0.1819    1.8542   -0.3902 H   0  0  0  0  0  0  0  0  0  0  0  0
   -0.7016   -1.2000   -2.4637 H   0  0  0  0  0  0  0  0  0  0  0  0
   -1.7556   -1.9328   -1.2803 H   0  0  0  0  0  0  0  0  0  0  0  0
   -3.1108    0.4726   -1.7844 H   0  0  0  0  0  0  0  0  0  0  0  0
   -3.4272   -2.2016   -3.2374 H   0  0  0  0  0  0  0  0  0  0  0  0
   -4.1166   -1.7826   -1.6576 H   0  0  0  0  0  0  0  0  0  0  0  0
   -4.6557   -0.9296   -3.1093 H   0  0  0  0  0  0  0  0  0  0  0  0
   -1.9260   -0.4856   -4.4451 H   0  0  0  0  0  0  0  0  0  0  0  0
   -1.5419    1.0530   -3.6606 H   0  0  0  0  0  0  0  0  0  0  0  0
   -3.1819    0.7436   -4.2339 H   0  0  0  0  0  0  0  0  0  0  0  0
    1.0973   -0.3828    2.6529 H   0  0  0  0  0  0  0  0  0  0  0  0
    3.0714    0.7618    3.4560 H   0  0  0  0  0  0  0  0  0  0  0  0
  1  2  1  0
  2  3  1  0
  3  4  2  0
  4  5  1  0
  5  6  2  0
  6  7  1  0
  7  8  1  0
  8  9  1  0
  9 10  2  0
  9 11  1  0
 11 12  1  0
 11 13  1  0
 13 14  1  0
 13 15  1  0
 15 16  1  0
 16 17  1  0
 16 18  1  0
  6 19  1  0
 19 20  2  0
 20  3  1  0
 13  7  1  0
  1 21  1  0
  1 22  1  0
  1 23  1  0
  4 24  1  0
  5 25  1  0
  7 26  1  0
 11 27  1  0
 12 28  1  0
 12 29  1  0
 12 30  1  0
 14 31  1  0
 14 32  1  0
 14 33  1  0
 15 34  1  0
 15 35  1  0
 16 36  1  0
 17 37  1  0
 17 38  1  0
 17 39  1  0
 18 40  1  0
 18 41  1  0
 18 42  1  0
 19 43  1  0
 20 44  1  0
M  END
>  <energy_abs>  (213) 
46.566364887121715

>  <SMILES>  (213) 
COc1ccc(C2OC(=O)C(C)C2(C)CC(C)C)cc1

>  <cluster_no>  (213) 
213

>  <ccdc_id>  (213) 
33

>  <initial_conformation_id>  (213) 
60

>  <minimize_method>  (213) 
MMFF

$$$$
