
     RDKit          3D

 44 45  0  0  0  0  0  0  0  0999 V2000
    5.9423    2.0151    0.6512 C   0  0  0  0  0  0  0  0  0  0  0  0
    4.7208    2.3030    1.3191 O   0  0  0  0  0  0  0  0  0  0  0  0
    3.7046    1.4011    1.1666 C   0  0  0  0  0  0  0  0  0  0  0  0
    3.7491    0.2334    0.4075 C   0  0  0  0  0  0  0  0  0  0  0  0
    2.6290   -0.6044    0.3360 C   0  0  0  0  0  0  0  0  0  0  0  0
    1.4437   -0.2894    1.0180 C   0  0  0  0  0  0  0  0  0  0  0  0
    0.2430   -1.2075    0.9141 C   0  0  0  0  0  0  0  0  0  0  0  0
   -0.6373   -1.0362    2.0341 O   0  0  0  0  0  0  0  0  0  0  0  0
   -1.8836   -1.4593    1.6797 C   0  0  0  0  0  0  0  0  0  0  0  0
   -2.8265   -1.5236    2.4504 O   0  0  0  0  0  0  0  0  0  0  0  0
   -1.8913   -1.8564    0.2223 C   0  0  0  0  0  0  0  0  0  0  0  0
   -3.2496   -1.6380   -0.4180 C   0  0  0  0  0  0  0  0  0  0  0  0
   -0.6759   -1.0728   -0.3348 C   0  0  0  0  0  0  0  0  0  0  0  0
   -0.0661   -1.8067   -1.5353 C   0  0  0  0  0  0  0  0  0  0  0  0
   -0.9945    0.4296   -0.6550 C   0  0  0  0  0  0  0  0  0  0  0  0
   -1.6906    0.7640   -1.9990 C   0  0  0  0  0  0  0  0  0  0  0  0
   -0.6819    1.0953   -3.1055 C   0  0  0  0  0  0  0  0  0  0  0  0
   -2.6219    1.9695   -1.8178 C   0  0  0  0  0  0  0  0  0  0  0  0
    1.4143    0.8839    1.7848 C   0  0  0  0  0  0  0  0  0  0  0  0
    2.5330    1.7187    1.8541 C   0  0  0  0  0  0  0  0  0  0  0  0
    6.3806    1.0799    1.0149 H   0  0  0  0  0  0  0  0  0  0  0  0
    5.8022    1.9908   -0.4346 H   0  0  0  0  0  0  0  0  0  0  0  0
    6.6456    2.8223    0.8777 H   0  0  0  0  0  0  0  0  0  0  0  0
    4.6391   -0.0578   -0.1401 H   0  0  0  0  0  0  0  0  0  0  0  0
    2.6975   -1.5136   -0.2577 H   0  0  0  0  0  0  0  0  0  0  0  0
    0.6256   -2.2356    1.0010 H   0  0  0  0  0  0  0  0  0  0  0  0
   -1.6771   -2.9345    0.2034 H   0  0  0  0  0  0  0  0  0  0  0  0
   -3.2341   -1.9024   -1.4790 H   0  0  0  0  0  0  0  0  0  0  0  0
   -3.6009   -0.6086   -0.3046 H   0  0  0  0  0  0  0  0  0  0  0  0
   -4.0009   -2.2754    0.0629 H   0  0  0  0  0  0  0  0  0  0  0  0
    0.8268   -1.2947   -1.9054 H   0  0  0  0  0  0  0  0  0  0  0  0
    0.2339   -2.8268   -1.2689 H   0  0  0  0  0  0  0  0  0  0  0  0
   -0.7799   -1.8929   -2.3604 H   0  0  0  0  0  0  0  0  0  0  0  0
   -1.5947    0.8314    0.1722 H   0  0  0  0  0  0  0  0  0  0  0  0
   -0.0638    1.0081   -0.6377 H   0  0  0  0  0  0  0  0  0  0  0  0
   -2.3010   -0.0746   -2.3413 H   0  0  0  0  0  0  0  0  0  0  0  0
   -0.0234    0.2525   -3.3245 H   0  0  0  0  0  0  0  0  0  0  0  0
   -0.0550    1.9505   -2.8299 H   0  0  0  0  0  0  0  0  0  0  0  0
   -1.2016    1.3498   -4.0359 H   0  0  0  0  0  0  0  0  0  0  0  0
   -2.0669    2.8538   -1.4859 H   0  0  0  0  0  0  0  0  0  0  0  0
   -3.3972    1.7568   -1.0745 H   0  0  0  0  0  0  0  0  0  0  0  0
   -3.1255    2.2181   -2.7581 H   0  0  0  0  0  0  0  0  0  0  0  0
    0.5188    1.1640    2.3365 H   0  0  0  0  0  0  0  0  0  0  0  0
    2.4892    2.6253    2.4531 H   0  0  0  0  0  0  0  0  0  0  0  0
  1  2  1  0
  2  3  1  0
  3  4  2  0
  4  5  1  0
  5  6  2  0
  6  7  1  0
  7  8  1  0
  8  9  1  0
  9 10  2  0
  9 11  1  0
 11 12  1  0
 11 13  1  0
 13 14  1  0
 13 15  1  0
 15 16  1  0
 16 17  1  0
 16 18  1  0
  6 19  1  0
 19 20  2  0
 20  3  1  0
 13  7  1  0
  1 21  1  0
  1 22  1  0
  1 23  1  0
  4 24  1  0
  5 25  1  0
  7 26  1  0
 11 27  1  0
 12 28  1  0
 12 29  1  0
 12 30  1  0
 14 31  1  0
 14 32  1  0
 14 33  1  0
 15 34  1  0
 15 35  1  0
 16 36  1  0
 17 37  1  0
 17 38  1  0
 17 39  1  0
 18 40  1  0
 18 41  1  0
 18 42  1  0
 19 43  1  0
 20 44  1  0
M  END
>  <energy_abs>  (214) 
46.32630175334703

>  <SMILES>  (214) 
COc1ccc(C2OC(=O)C(C)C2(C)CC(C)C)cc1

>  <cluster_no>  (214) 
214

>  <ccdc_id>  (214) 
33

>  <initial_conformation_id>  (214) 
59

>  <minimize_method>  (214) 
MMFF

$$$$
