
     RDKit          3D

 44 45  0  0  0  0  0  0  0  0999 V2000
    5.8274    2.3015    2.0285 C   0  0  0  0  0  0  0  0  0  0  0  0
    4.8519    1.5010    2.6836 O   0  0  0  0  0  0  0  0  0  0  0  0
    3.8523    0.9848    1.9070 C   0  0  0  0  0  0  0  0  0  0  0  0
    2.9367    0.1829    2.5889 C   0  0  0  0  0  0  0  0  0  0  0  0
    1.8614   -0.4090    1.9188 C   0  0  0  0  0  0  0  0  0  0  0  0
    1.6761   -0.2048    0.5451 C   0  0  0  0  0  0  0  0  0  0  0  0
    0.5164   -0.8104   -0.2302 C   0  0  0  0  0  0  0  0  0  0  0  0
    0.1040   -2.0525    0.3649 O   0  0  0  0  0  0  0  0  0  0  0  0
   -1.0699   -1.8781    1.0368 C   0  0  0  0  0  0  0  0  0  0  0  0
   -1.6271   -2.7594    1.6700 O   0  0  0  0  0  0  0  0  0  0  0  0
   -1.5274   -0.4458    0.9127 C   0  0  0  0  0  0  0  0  0  0  0  0
   -3.0403   -0.3269    0.9539 C   0  0  0  0  0  0  0  0  0  0  0  0
   -0.7966    0.0206   -0.3645 C   0  0  0  0  0  0  0  0  0  0  0  0
   -0.5695    1.5371   -0.3437 C   0  0  0  0  0  0  0  0  0  0  0  0
   -1.5015   -0.4382   -1.6957 C   0  0  0  0  0  0  0  0  0  0  0  0
   -2.6887    0.3970   -2.2363 C   0  0  0  0  0  0  0  0  0  0  0  0
   -3.7042   -0.5238   -2.9254 C   0  0  0  0  0  0  0  0  0  0  0  0
   -2.2351    1.4568   -3.2472 C   0  0  0  0  0  0  0  0  0  0  0  0
    2.6092    0.5976   -0.1339 C   0  0  0  0  0  0  0  0  0  0  0  0
    3.6853    1.1889    0.5394 C   0  0  0  0  0  0  0  0  0  0  0  0
    6.3661    1.7254    1.2689 H   0  0  0  0  0  0  0  0  0  0  0  0
    5.3747    3.2001    1.5966 H   0  0  0  0  0  0  0  0  0  0  0  0
    6.5549    2.6237    2.7797 H   0  0  0  0  0  0  0  0  0  0  0  0
    3.0642    0.0103    3.6553 H   0  0  0  0  0  0  0  0  0  0  0  0
    1.1853   -1.0387    2.4923 H   0  0  0  0  0  0  0  0  0  0  0  0
    0.9076   -1.0745   -1.2207 H   0  0  0  0  0  0  0  0  0  0  0  0
   -1.1242    0.0810    1.7880 H   0  0  0  0  0  0  0  0  0  0  0  0
   -3.5263   -0.9556    0.2024 H   0  0  0  0  0  0  0  0  0  0  0  0
   -3.4190   -0.6595    1.9273 H   0  0  0  0  0  0  0  0  0  0  0  0
   -3.3594    0.7105    0.8197 H   0  0  0  0  0  0  0  0  0  0  0  0
   -1.5142    2.0877   -0.3880 H   0  0  0  0  0  0  0  0  0  0  0  0
   -0.0759    1.8653    0.5776 H   0  0  0  0  0  0  0  0  0  0  0  0
    0.0542    1.8544   -1.1855 H   0  0  0  0  0  0  0  0  0  0  0  0
   -1.8268   -1.4790   -1.5639 H   0  0  0  0  0  0  0  0  0  0  0  0
   -0.7456   -0.4793   -2.4924 H   0  0  0  0  0  0  0  0  0  0  0  0
   -3.2094    0.9053   -1.4213 H   0  0  0  0  0  0  0  0  0  0  0  0
   -4.5524    0.0513   -3.3120 H   0  0  0  0  0  0  0  0  0  0  0  0
   -3.2483   -1.0616   -3.7638 H   0  0  0  0  0  0  0  0  0  0  0  0
   -4.1004   -1.2641   -2.2226 H   0  0  0  0  0  0  0  0  0  0  0  0
   -3.0948    2.0234   -3.6219 H   0  0  0  0  0  0  0  0  0  0  0  0
   -1.5424    2.1757   -2.8049 H   0  0  0  0  0  0  0  0  0  0  0  0
   -1.7383    0.9976   -4.1089 H   0  0  0  0  0  0  0  0  0  0  0  0
    2.5058    0.7726   -1.2035 H   0  0  0  0  0  0  0  0  0  0  0  0
    4.3727    1.8004   -0.0353 H   0  0  0  0  0  0  0  0  0  0  0  0
  1  2  1  0
  2  3  1  0
  3  4  2  0
  4  5  1  0
  5  6  2  0
  6  7  1  0
  7  8  1  0
  8  9  1  0
  9 10  2  0
  9 11  1  0
 11 12  1  0
 11 13  1  0
 13 14  1  0
 13 15  1  0
 15 16  1  0
 16 17  1  0
 16 18  1  0
  6 19  1  0
 19 20  2  0
 20  3  1  0
 13  7  1  0
  1 21  1  0
  1 22  1  0
  1 23  1  0
  4 24  1  0
  5 25  1  0
  7 26  1  0
 11 27  1  0
 12 28  1  0
 12 29  1  0
 12 30  1  0
 14 31  1  0
 14 32  1  0
 14 33  1  0
 15 34  1  0
 15 35  1  0
 16 36  1  0
 17 37  1  0
 17 38  1  0
 17 39  1  0
 18 40  1  0
 18 41  1  0
 18 42  1  0
 19 43  1  0
 20 44  1  0
M  END
>  <energy_abs>  (215) 
47.538693908646664

>  <SMILES>  (215) 
COc1ccc(C2OC(=O)C(C)C2(C)CC(C)C)cc1

>  <cluster_no>  (215) 
215

>  <ccdc_id>  (215) 
33

>  <initial_conformation_id>  (215) 
55

>  <minimize_method>  (215) 
MMFF

$$$$
