%NProcShared=1
%Mem=10GB

#p B3LYP/6-31G* opt freq

test

0  1
C           5.46710         2.85850         1.50720
O           5.19540         1.46940         1.37380
C           3.88060         1.09870         1.31740
C           2.78250         1.95530         1.36150
C           1.48240         1.43910         1.29220
C           1.25540         0.05920         1.17340
C          -0.16240        -0.47030         1.08800
O          -0.23810        -1.81440         1.58470
C          -1.28290        -2.45440         0.98950
O          -1.64760        -3.58250         1.27880
C          -1.93290        -1.56220        -0.04090
C          -3.23820        -1.03630         0.54840
C          -0.81450        -0.52940        -0.31570
C           0.15200        -1.13220        -1.36360
C          -1.30680         0.87420        -0.76640
C          -2.08880         0.93500        -2.10100
C          -1.18150         1.28390        -3.28620
C          -3.19400         1.99540        -2.01460
C           2.36800        -0.79230         1.13860
C           3.66460        -0.27520         1.20740
H           5.05360         3.25410         2.44080
H           6.55350         2.98460         1.54480
H           5.09690         3.41780         0.64170
H           2.90000         3.02990         1.45170
H           0.64490         2.13240         1.33710
H          -0.77270         0.13100         1.77650
H          -2.14680        -2.15610        -0.93680
H          -3.78920        -0.43370        -0.17750
H          -3.07220        -0.43120         1.44580
H          -3.88990        -1.86790         0.84020
H          -0.37680        -1.39240        -2.28650
H           0.95120        -0.42910        -1.62150
H           0.62400        -2.05470        -1.00760
H          -0.44770         1.55300        -0.83650
H          -1.93080         1.28900         0.03600
H          -2.56820        -0.02950        -2.30210
H          -1.76120         1.32560        -4.21490
H          -0.39060         0.54560        -3.43180
H          -0.70520         2.26070        -3.14670
H          -2.77640         2.98920        -1.81900
H          -3.76140         2.04390        -2.95020
H          -3.90100         1.76200        -1.21210
H           2.23960        -1.87030         1.06010
H           4.51460        -0.95300         1.17820

