%NProcShared=1
%Mem=10GB

#p B3LYP/6-31G* opt freq

test

0  1
C           5.89880         2.06720         0.60380
O           5.07280         1.57510         1.65110
C           3.80770         1.18740         1.31030
C           3.04170         0.69280         2.36230
C           1.72810         0.26150         2.14860
C           1.14250         0.29690         0.87040
C          -0.30620        -0.13580         0.68130
O          -0.65770        -1.04130         1.75370
C          -1.67300        -1.86040         1.37400
O          -2.21250        -2.66800         2.11160
C          -2.03770        -1.58100        -0.05780
C          -2.51030        -2.83700        -0.77810
C          -0.75620        -0.88980        -0.59480
C           0.28590        -1.97880        -0.98980
C          -1.03840        -0.03910        -1.87440
C          -1.77490         1.32550        -1.87300
C          -3.11240         1.36500        -1.14450
C          -0.90050         2.50790        -1.45360
C           1.92240         0.81910        -0.17030
C           3.24040         1.25230         0.04160
H           6.87230         2.31870         1.03570
H           5.48150         2.98130         0.16880
H           6.06230         1.30280        -0.16310
H           3.46620         0.64290         3.36220
H           1.16690        -0.10600         3.00680
H          -0.92260         0.75310         0.84820
H          -2.87510        -0.88380        -0.00850
H          -3.46980        -3.16880        -0.36470
H          -1.81460        -3.67340        -0.65380
H          -2.65750        -2.65470        -1.84640
H          -0.07150        -2.58550        -1.82940
H           0.50970        -2.65610        -0.15830
H           1.23290        -1.54050        -1.31750
H          -0.08930         0.12240        -2.40200
H          -1.60720        -0.68490        -2.55930
H          -2.01170         1.51280        -2.93120
H          -3.76510         0.55290        -1.47950
H          -3.63460         2.30470        -1.35830
H          -2.99150         1.30780        -0.05940
H          -1.41970         3.45270        -1.65220
H          -0.65620         2.49540        -0.39020
H           0.03130         2.52870        -2.02710
H           1.53080         0.90160        -1.17750
H           3.79110         1.63840        -0.80980

