
     RDKit          3D

 44 45  0  0  0  0  0  0  0  0999 V2000
    5.8988    2.0672    0.6038 C   0  0  0  0  0  0  0  0  0  0  0  0
    5.0728    1.5751    1.6511 O   0  0  0  0  0  0  0  0  0  0  0  0
    3.8077    1.1874    1.3103 C   0  0  0  0  0  0  0  0  0  0  0  0
    3.0417    0.6928    2.3623 C   0  0  0  0  0  0  0  0  0  0  0  0
    1.7281    0.2615    2.1486 C   0  0  0  0  0  0  0  0  0  0  0  0
    1.1425    0.2969    0.8704 C   0  0  0  0  0  0  0  0  0  0  0  0
   -0.3062   -0.1358    0.6813 C   0  0  0  0  0  0  0  0  0  0  0  0
   -0.6577   -1.0413    1.7537 O   0  0  0  0  0  0  0  0  0  0  0  0
   -1.6730   -1.8604    1.3740 C   0  0  0  0  0  0  0  0  0  0  0  0
   -2.2125   -2.6680    2.1116 O   0  0  0  0  0  0  0  0  0  0  0  0
   -2.0377   -1.5810   -0.0578 C   0  0  0  0  0  0  0  0  0  0  0  0
   -2.5103   -2.8370   -0.7781 C   0  0  0  0  0  0  0  0  0  0  0  0
   -0.7562   -0.8898   -0.5948 C   0  0  0  0  0  0  0  0  0  0  0  0
    0.2859   -1.9788   -0.9898 C   0  0  0  0  0  0  0  0  0  0  0  0
   -1.0384   -0.0391   -1.8744 C   0  0  0  0  0  0  0  0  0  0  0  0
   -1.7749    1.3255   -1.8730 C   0  0  0  0  0  0  0  0  0  0  0  0
   -3.1124    1.3650   -1.1445 C   0  0  0  0  0  0  0  0  0  0  0  0
   -0.9005    2.5079   -1.4536 C   0  0  0  0  0  0  0  0  0  0  0  0
    1.9224    0.8191   -0.1703 C   0  0  0  0  0  0  0  0  0  0  0  0
    3.2404    1.2523    0.0416 C   0  0  0  0  0  0  0  0  0  0  0  0
    6.8723    2.3187    1.0357 H   0  0  0  0  0  0  0  0  0  0  0  0
    5.4815    2.9813    0.1688 H   0  0  0  0  0  0  0  0  0  0  0  0
    6.0623    1.3028   -0.1631 H   0  0  0  0  0  0  0  0  0  0  0  0
    3.4662    0.6429    3.3622 H   0  0  0  0  0  0  0  0  0  0  0  0
    1.1669   -0.1060    3.0068 H   0  0  0  0  0  0  0  0  0  0  0  0
   -0.9226    0.7531    0.8482 H   0  0  0  0  0  0  0  0  0  0  0  0
   -2.8751   -0.8838   -0.0085 H   0  0  0  0  0  0  0  0  0  0  0  0
   -3.4698   -3.1688   -0.3647 H   0  0  0  0  0  0  0  0  0  0  0  0
   -1.8146   -3.6734   -0.6538 H   0  0  0  0  0  0  0  0  0  0  0  0
   -2.6575   -2.6547   -1.8464 H   0  0  0  0  0  0  0  0  0  0  0  0
   -0.0715   -2.5855   -1.8294 H   0  0  0  0  0  0  0  0  0  0  0  0
    0.5097   -2.6561   -0.1583 H   0  0  0  0  0  0  0  0  0  0  0  0
    1.2329   -1.5405   -1.3175 H   0  0  0  0  0  0  0  0  0  0  0  0
   -0.0893    0.1224   -2.4020 H   0  0  0  0  0  0  0  0  0  0  0  0
   -1.6072   -0.6849   -2.5593 H   0  0  0  0  0  0  0  0  0  0  0  0
   -2.0117    1.5128   -2.9312 H   0  0  0  0  0  0  0  0  0  0  0  0
   -3.7651    0.5529   -1.4795 H   0  0  0  0  0  0  0  0  0  0  0  0
   -3.6346    2.3047   -1.3583 H   0  0  0  0  0  0  0  0  0  0  0  0
   -2.9915    1.3078   -0.0594 H   0  0  0  0  0  0  0  0  0  0  0  0
   -1.4197    3.4527   -1.6522 H   0  0  0  0  0  0  0  0  0  0  0  0
   -0.6562    2.4954   -0.3902 H   0  0  0  0  0  0  0  0  0  0  0  0
    0.0313    2.5287   -2.0271 H   0  0  0  0  0  0  0  0  0  0  0  0
    1.5308    0.9016   -1.1775 H   0  0  0  0  0  0  0  0  0  0  0  0
    3.7911    1.6384   -0.8098 H   0  0  0  0  0  0  0  0  0  0  0  0
  1  2  1  0
  2  3  1  0
  3  4  2  0
  4  5  1  0
  5  6  2  0
  6  7  1  0
  7  8  1  0
  8  9  1  0
  9 10  2  0
  9 11  1  0
 11 12  1  0
 11 13  1  0
 13 14  1  0
 13 15  1  0
 15 16  1  0
 16 17  1  0
 16 18  1  0
  6 19  1  0
 19 20  2  0
 20  3  1  0
 13  7  1  0
  1 21  1  0
  1 22  1  0
  1 23  1  0
  4 24  1  0
  5 25  1  0
  7 26  1  0
 11 27  1  0
 12 28  1  0
 12 29  1  0
 12 30  1  0
 14 31  1  0
 14 32  1  0
 14 33  1  0
 15 34  1  0
 15 35  1  0
 16 36  1  0
 17 37  1  0
 17 38  1  0
 17 39  1  0
 18 40  1  0
 18 41  1  0
 18 42  1  0
 19 43  1  0
 20 44  1  0
M  END
>  <energy_abs>  (218) 
51.16402382303324

>  <SMILES>  (218) 
COc1ccc(C2OC(=O)C(C)C2(C)CC(C)C)cc1

>  <cluster_no>  (218) 
218

>  <ccdc_id>  (218) 
33

>  <initial_conformation_id>  (218) 
51

>  <minimize_method>  (218) 
MMFF

$$$$
