#Put Keywords Here, check Charge and Multiplicity.

 

0  1
C           5.98610         2.08330         0.72560
O           4.82220         2.28850         1.51610
C           3.73090         1.52000         1.22130
C           3.64420         0.56990         0.20700
C           2.45730        -0.14810         0.01480
C           1.33100         0.07170         0.82620
C           0.06050        -0.72590         0.56550
O          -0.71010        -0.86650         1.77290
C          -1.77320        -0.00940         1.74880
O          -2.56810         0.11620         2.66520
C          -1.77380         0.76750         0.45640
C          -3.17540         1.13420        -0.00970
C          -0.94470        -0.16080        -0.46710
C          -0.32870         0.67950        -1.59880
C          -1.86090        -1.29110        -1.06320
C          -1.23700        -2.59250        -1.62230
C          -0.19990        -2.38400        -2.71980
C          -2.35970        -3.49400        -2.15680
C           1.43680         1.02230         1.85040
C           2.62300         1.73850         2.04020
H           6.76290         2.76150         1.09180
H           5.79790         2.32900        -0.32480
H           6.36060         1.05980         0.83180
H           4.47990         0.35950        -0.45190
H           2.42290        -0.88820        -0.78250
H           0.38310        -1.73600         0.29940
H          -1.22600         1.69850         0.65370
H          -3.85350         0.27510        -0.01540
H          -3.61590         1.87220         0.67040
H          -3.15730         1.57460        -1.01110
H           0.13390         1.59690        -1.21730
H           0.44330         0.14300        -2.15130
H          -1.09380         0.99120        -2.31860
H          -2.48770        -0.84770        -1.84960
H          -2.56230        -1.61430        -0.28130
H          -0.76210        -3.14360        -0.80260
H           0.06870        -3.33630        -3.19060
H          -0.57430        -1.71780        -3.50370
H           0.72500        -1.96950        -2.31190
H          -2.87710        -3.02580        -3.00130
H          -1.95980        -4.45580        -2.49550
H          -3.09980        -3.70060        -1.37630
H           0.60900         1.21800         2.52780
H           2.68420         2.47100         2.84200

