%NProcShared=1
%Mem=10GB

#p B3LYP/6-31G* opt freq

test

0  1
C           5.46400         2.34120        -0.00460
O           4.50380         2.39340         1.04300
C           3.46330         1.50930         0.97040
C           2.55310         1.59020         2.02480
C           1.44040         0.74630         2.07490
C           1.21050        -0.19520         1.06120
C          -0.00100        -1.09590         1.13140
O           0.22660        -2.31280         0.40180
C          -0.97800        -2.86140         0.07560
O          -1.11060        -3.94320        -0.47130
C          -2.08880        -1.94400         0.52330
C          -3.31510        -2.04260        -0.37030
C          -1.36390        -0.57130         0.60570
C          -2.06210         0.31630         1.64290
C          -1.28420         0.11130        -0.80480
C          -0.82130         1.58840        -0.88450
C          -1.99980         2.56840        -0.82460
C          -0.06620         1.82880        -2.19830
C           2.13750        -0.27690         0.01170
C           3.25250         0.56910        -0.03580
H           5.00730         2.57960        -0.97090
H           5.96550         1.36820        -0.03260
H           6.22400         3.10130         0.20060
H           2.71400         2.31710         2.81750
H           0.75680         0.83410         2.91630
H          -0.09600        -1.40690         2.18300
H          -2.37230        -2.27710         1.53170
H          -3.05890        -1.99230        -1.43370
H          -3.81240        -3.00770        -0.21900
H          -4.04010        -1.25640        -0.13960
H          -2.14710        -0.19180         2.61060
H          -1.51570         1.24640         1.82220
H          -3.07820         0.56900         1.32270
H          -0.63520        -0.50460        -1.44130
H          -2.27030         0.07400        -1.28140
H          -0.14230         1.82890        -0.06420
H          -1.64380         3.60200        -0.89870
H          -2.70100         2.39840        -1.64910
H          -2.55680         2.48580         0.11070
H          -0.70540         1.62970        -3.06550
H           0.28080         2.86560        -2.26380
H           0.81310         1.18170        -2.27220
H           2.00090        -1.00360        -0.78760
H           3.93400         0.46300        -0.87310

