
     RDKit          3D

 44 45  0  0  0  0  0  0  0  0999 V2000
    5.8964    1.5729    0.2906 C   0  0  0  0  0  0  0  0  0  0  0  0
    4.7615    2.1152    0.9541 O   0  0  0  0  0  0  0  0  0  0  0  0
    3.6125    1.3754    0.9151 C   0  0  0  0  0  0  0  0  0  0  0  0
    3.4460    0.1479    0.2792 C   0  0  0  0  0  0  0  0  0  0  0  0
    2.2062   -0.5030    0.3172 C   0  0  0  0  0  0  0  0  0  0  0  0
    1.1036    0.0638    0.9760 C   0  0  0  0  0  0  0  0  0  0  0  0
   -0.2403   -0.6327    1.0316 C   0  0  0  0  0  0  0  0  0  0  0  0
   -0.0035   -2.0171    1.3519 O   0  0  0  0  0  0  0  0  0  0  0  0
   -1.0246   -2.7794    0.8744 C   0  0  0  0  0  0  0  0  0  0  0  0
   -1.1157   -3.9838    1.0423 O   0  0  0  0  0  0  0  0  0  0  0  0
   -2.0165   -1.9031    0.1561 C   0  0  0  0  0  0  0  0  0  0  0  0
   -2.7169   -2.6305   -0.9828 C   0  0  0  0  0  0  0  0  0  0  0  0
   -1.1541   -0.6609   -0.2205 C   0  0  0  0  0  0  0  0  0  0  0  0
   -0.3996   -0.9342   -1.5400 C   0  0  0  0  0  0  0  0  0  0  0  0
   -2.1082    0.5629   -0.3623 C   0  0  0  0  0  0  0  0  0  0  0  0
   -1.5601    2.0048   -0.3787 C   0  0  0  0  0  0  0  0  0  0  0  0
   -2.7437    2.9839   -0.4349 C   0  0  0  0  0  0  0  0  0  0  0  0
   -0.6113    2.3174   -1.5314 C   0  0  0  0  0  0  0  0  0  0  0  0
    1.2960    1.2846    1.6372 C   0  0  0  0  0  0  0  0  0  0  0  0
    2.5328    1.9355    1.5973 C   0  0  0  0  0  0  0  0  0  0  0  0
    5.7116    1.4649   -0.7833 H   0  0  0  0  0  0  0  0  0  0  0  0
    6.1979    0.6202    0.7384 H   0  0  0  0  0  0  0  0  0  0  0  0
    6.7249    2.2765    0.4164 H   0  0  0  0  0  0  0  0  0  0  0  0
    4.2590   -0.3387   -0.2490 H   0  0  0  0  0  0  0  0  0  0  0  0
    2.1162   -1.4736   -0.1674 H   0  0  0  0  0  0  0  0  0  0  0  0
   -0.7992   -0.2257    1.8865 H   0  0  0  0  0  0  0  0  0  0  0  0
   -2.7699   -1.6299    0.9078 H   0  0  0  0  0  0  0  0  0  0  0  0
   -2.0097   -3.1215   -1.6592 H   0  0  0  0  0  0  0  0  0  0  0  0
   -3.3649   -3.4193   -0.5840 H   0  0  0  0  0  0  0  0  0  0  0  0
   -3.3444   -1.9480   -1.5636 H   0  0  0  0  0  0  0  0  0  0  0  0
   -1.0853   -0.9409   -2.3948 H   0  0  0  0  0  0  0  0  0  0  0  0
    0.1096   -1.9044   -1.5239 H   0  0  0  0  0  0  0  0  0  0  0  0
    0.3617   -0.1855   -1.7574 H   0  0  0  0  0  0  0  0  0  0  0  0
   -2.8229    0.5215    0.4724 H   0  0  0  0  0  0  0  0  0  0  0  0
   -2.7193    0.4184   -1.2644 H   0  0  0  0  0  0  0  0  0  0  0  0
   -1.0443    2.2016    0.5637 H   0  0  0  0  0  0  0  0  0  0  0  0
   -2.3953    4.0210   -0.3805 H   0  0  0  0  0  0  0  0  0  0  0  0
   -3.3134    2.8655   -1.3630 H   0  0  0  0  0  0  0  0  0  0  0  0
   -3.4259    2.8218    0.4065 H   0  0  0  0  0  0  0  0  0  0  0  0
    0.3702    1.8667   -1.3729 H   0  0  0  0  0  0  0  0  0  0  0  0
   -1.0126    1.9654   -2.4872 H   0  0  0  0  0  0  0  0  0  0  0  0
   -0.4407    3.3965   -1.6174 H   0  0  0  0  0  0  0  0  0  0  0  0
    0.4883    1.7450    2.2017 H   0  0  0  0  0  0  0  0  0  0  0  0
    2.6576    2.8857    2.1112 H   0  0  0  0  0  0  0  0  0  0  0  0
  1  2  1  0
  2  3  1  0
  3  4  2  0
  4  5  1  0
  5  6  2  0
  6  7  1  0
  7  8  1  0
  8  9  1  0
  9 10  2  0
  9 11  1  0
 11 12  1  0
 11 13  1  0
 13 14  1  0
 13 15  1  0
 15 16  1  0
 16 17  1  0
 16 18  1  0
  6 19  1  0
 19 20  2  0
 20  3  1  0
 13  7  1  0
  1 21  1  0
  1 22  1  0
  1 23  1  0
  4 24  1  0
  5 25  1  0
  7 26  1  0
 11 27  1  0
 12 28  1  0
 12 29  1  0
 12 30  1  0
 14 31  1  0
 14 32  1  0
 14 33  1  0
 15 34  1  0
 15 35  1  0
 16 36  1  0
 17 37  1  0
 17 38  1  0
 17 39  1  0
 18 40  1  0
 18 41  1  0
 18 42  1  0
 19 43  1  0
 20 44  1  0
M  END
>  <energy_abs>  (222) 
46.52006602253353

>  <SMILES>  (222) 
COc1ccc(C2OC(=O)C(C)C2(C)CC(C)C)cc1

>  <cluster_no>  (222) 
222

>  <ccdc_id>  (222) 
33

>  <initial_conformation_id>  (222) 
44

>  <minimize_method>  (222) 
MMFF

$$$$
