%NProcShared=1
%Mem=10GB

#p B3LYP/6-31G* opt freq

test

0  1
C           5.89640         1.57290         0.29060
O           4.76150         2.11520         0.95410
C           3.61250         1.37540         0.91510
C           3.44600         0.14790         0.27920
C           2.20620        -0.50300         0.31720
C           1.10360         0.06380         0.97600
C          -0.24030        -0.63270         1.03160
O          -0.00350        -2.01710         1.35190
C          -1.02460        -2.77940         0.87440
O          -1.11570        -3.98380         1.04230
C          -2.01650        -1.90310         0.15610
C          -2.71690        -2.63050        -0.98280
C          -1.15410        -0.66090        -0.22050
C          -0.39960        -0.93420        -1.54000
C          -2.10820         0.56290        -0.36230
C          -1.56010         2.00480        -0.37870
C          -2.74370         2.98390        -0.43490
C          -0.61130         2.31740        -1.53140
C           1.29600         1.28460         1.63720
C           2.53280         1.93550         1.59730
H           5.71160         1.46490        -0.78330
H           6.19790         0.62020         0.73840
H           6.72490         2.27650         0.41640
H           4.25900        -0.33870        -0.24900
H           2.11620        -1.47360        -0.16740
H          -0.79920        -0.22570         1.88650
H          -2.76990        -1.62990         0.90780
H          -2.00970        -3.12150        -1.65920
H          -3.36490        -3.41930        -0.58400
H          -3.34440        -1.94800        -1.56360
H          -1.08530        -0.94090        -2.39480
H           0.10960        -1.90440        -1.52390
H           0.36170        -0.18550        -1.75740
H          -2.82290         0.52150         0.47240
H          -2.71930         0.41840        -1.26440
H          -1.04430         2.20160         0.56370
H          -2.39530         4.02100        -0.38050
H          -3.31340         2.86550        -1.36300
H          -3.42590         2.82180         0.40650
H           0.37020         1.86670        -1.37290
H          -1.01260         1.96540        -2.48720
H          -0.44070         3.39650        -1.61740
H           0.48830         1.74500         2.20170
H           2.65760         2.88570         2.11120

