%NProcShared=1
%Mem=10GB

#p B3LYP/6-31G* opt freq

test

0  1
C           5.66600         2.66800         0.90370
O           5.32960         1.28660         0.90390
C           3.99870         0.97390         0.90230
C           3.71900        -0.39250         0.92240
C           2.39920        -0.85260         0.92190
C           1.32590         0.04920         0.89560
C          -0.11610        -0.42130         0.88380
O          -0.22620        -1.73000         1.47370
C          -1.30770        -2.37490         0.94940
O          -1.68380        -3.47860         1.30690
C          -1.96780        -1.50340        -0.09070
C          -2.60520        -2.30970        -1.21090
C          -0.81630        -0.55890        -0.48980
C           0.13360        -1.24330        -1.51600
C          -1.28260         0.77870        -1.13530
C          -2.57320         1.48060        -0.65110
C          -2.53540         1.96020         0.79720
C          -2.85620         2.68470        -1.56240
C           1.61790         1.42160         0.88330
C           2.94120         1.88080         0.88450
H           5.30390         3.16210        -0.00390
H           5.28930         3.16650         1.80300
H           6.75740         2.74640         0.91230
H           4.53670        -1.10920         0.94210
H           2.22180        -1.92630         0.94350
H          -0.66630         0.23800         1.56040
H          -2.75610        -0.96290         0.44440
H          -1.91970        -3.05570        -1.62610
H          -2.95100        -1.65820        -2.01910
H          -3.47310        -2.86120        -0.83190
H           0.52550        -2.19700        -1.14620
H           0.98660        -0.59960        -1.75840
H          -0.37820        -1.44620        -2.46340
H          -0.45480         1.49780        -1.10480
H          -1.44130         0.58020        -2.20560
H          -3.42020         0.79430        -0.76750
H          -1.63200         2.54270         1.00250
H          -3.39930         2.59680         1.01950
H          -2.58300         1.12350         1.49770
H          -2.05560         3.42940        -1.49600
H          -3.79700         3.17210        -1.28460
H          -2.94420         2.37180        -2.60830
H           0.81540         2.15560         0.87820
H           3.10860         2.95260         0.87370

