
     RDKit          3D

 44 45  0  0  0  0  0  0  0  0999 V2000
    5.6660    2.6680    0.9037 C   0  0  0  0  0  0  0  0  0  0  0  0
    5.3296    1.2866    0.9039 O   0  0  0  0  0  0  0  0  0  0  0  0
    3.9987    0.9739    0.9023 C   0  0  0  0  0  0  0  0  0  0  0  0
    3.7190   -0.3925    0.9224 C   0  0  0  0  0  0  0  0  0  0  0  0
    2.3992   -0.8526    0.9219 C   0  0  0  0  0  0  0  0  0  0  0  0
    1.3259    0.0492    0.8956 C   0  0  0  0  0  0  0  0  0  0  0  0
   -0.1161   -0.4213    0.8838 C   0  0  0  0  0  0  0  0  0  0  0  0
   -0.2262   -1.7300    1.4737 O   0  0  0  0  0  0  0  0  0  0  0  0
   -1.3077   -2.3749    0.9494 C   0  0  0  0  0  0  0  0  0  0  0  0
   -1.6838   -3.4786    1.3069 O   0  0  0  0  0  0  0  0  0  0  0  0
   -1.9678   -1.5034   -0.0907 C   0  0  0  0  0  0  0  0  0  0  0  0
   -2.6052   -2.3097   -1.2109 C   0  0  0  0  0  0  0  0  0  0  0  0
   -0.8163   -0.5589   -0.4898 C   0  0  0  0  0  0  0  0  0  0  0  0
    0.1336   -1.2433   -1.5160 C   0  0  0  0  0  0  0  0  0  0  0  0
   -1.2826    0.7787   -1.1353 C   0  0  0  0  0  0  0  0  0  0  0  0
   -2.5732    1.4806   -0.6511 C   0  0  0  0  0  0  0  0  0  0  0  0
   -2.5354    1.9602    0.7972 C   0  0  0  0  0  0  0  0  0  0  0  0
   -2.8562    2.6847   -1.5624 C   0  0  0  0  0  0  0  0  0  0  0  0
    1.6179    1.4216    0.8833 C   0  0  0  0  0  0  0  0  0  0  0  0
    2.9412    1.8808    0.8845 C   0  0  0  0  0  0  0  0  0  0  0  0
    5.3039    3.1621   -0.0039 H   0  0  0  0  0  0  0  0  0  0  0  0
    5.2893    3.1665    1.8030 H   0  0  0  0  0  0  0  0  0  0  0  0
    6.7574    2.7464    0.9123 H   0  0  0  0  0  0  0  0  0  0  0  0
    4.5367   -1.1092    0.9421 H   0  0  0  0  0  0  0  0  0  0  0  0
    2.2218   -1.9263    0.9435 H   0  0  0  0  0  0  0  0  0  0  0  0
   -0.6663    0.2380    1.5604 H   0  0  0  0  0  0  0  0  0  0  0  0
   -2.7561   -0.9629    0.4444 H   0  0  0  0  0  0  0  0  0  0  0  0
   -1.9197   -3.0557   -1.6261 H   0  0  0  0  0  0  0  0  0  0  0  0
   -2.9510   -1.6582   -2.0191 H   0  0  0  0  0  0  0  0  0  0  0  0
   -3.4731   -2.8612   -0.8319 H   0  0  0  0  0  0  0  0  0  0  0  0
    0.5255   -2.1970   -1.1462 H   0  0  0  0  0  0  0  0  0  0  0  0
    0.9866   -0.5996   -1.7584 H   0  0  0  0  0  0  0  0  0  0  0  0
   -0.3782   -1.4462   -2.4634 H   0  0  0  0  0  0  0  0  0  0  0  0
   -0.4548    1.4978   -1.1048 H   0  0  0  0  0  0  0  0  0  0  0  0
   -1.4413    0.5802   -2.2056 H   0  0  0  0  0  0  0  0  0  0  0  0
   -3.4202    0.7943   -0.7675 H   0  0  0  0  0  0  0  0  0  0  0  0
   -1.6320    2.5427    1.0025 H   0  0  0  0  0  0  0  0  0  0  0  0
   -3.3993    2.5968    1.0195 H   0  0  0  0  0  0  0  0  0  0  0  0
   -2.5830    1.1235    1.4977 H   0  0  0  0  0  0  0  0  0  0  0  0
   -2.0556    3.4294   -1.4960 H   0  0  0  0  0  0  0  0  0  0  0  0
   -3.7970    3.1721   -1.2846 H   0  0  0  0  0  0  0  0  0  0  0  0
   -2.9442    2.3718   -2.6083 H   0  0  0  0  0  0  0  0  0  0  0  0
    0.8154    2.1556    0.8782 H   0  0  0  0  0  0  0  0  0  0  0  0
    3.1086    2.9526    0.8737 H   0  0  0  0  0  0  0  0  0  0  0  0
  1  2  1  0
  2  3  1  0
  3  4  2  0
  4  5  1  0
  5  6  2  0
  6  7  1  0
  7  8  1  0
  8  9  1  0
  9 10  2  0
  9 11  1  0
 11 12  1  0
 11 13  1  0
 13 14  1  0
 13 15  1  0
 15 16  1  0
 16 17  1  0
 16 18  1  0
  6 19  1  0
 19 20  2  0
 20  3  1  0
 13  7  1  0
  1 21  1  0
  1 22  1  0
  1 23  1  0
  4 24  1  0
  5 25  1  0
  7 26  1  0
 11 27  1  0
 12 28  1  0
 12 29  1  0
 12 30  1  0
 14 31  1  0
 14 32  1  0
 14 33  1  0
 15 34  1  0
 15 35  1  0
 16 36  1  0
 17 37  1  0
 17 38  1  0
 17 39  1  0
 18 40  1  0
 18 41  1  0
 18 42  1  0
 19 43  1  0
 20 44  1  0
M  END
>  <energy_abs>  (223) 
44.907915867227835

>  <SMILES>  (223) 
COc1ccc(C2OC(=O)C(C)C2(C)CC(C)C)cc1

>  <cluster_no>  (223) 
223

>  <ccdc_id>  (223) 
33

>  <initial_conformation_id>  (223) 
43

>  <minimize_method>  (223) 
MMFF

$$$$
