
     RDKit          3D

 44 45  0  0  0  0  0  0  0  0999 V2000
    6.1082    0.4052    1.7719 C   0  0  0  0  0  0  0  0  0  0  0  0
    5.1300    1.3650    1.3921 O   0  0  0  0  0  0  0  0  0  0  0  0
    3.9232    0.8817    0.9694 C   0  0  0  0  0  0  0  0  0  0  0  0
    3.0014    1.8575    0.5931 C   0  0  0  0  0  0  0  0  0  0  0  0
    1.7274    1.5010    0.1417 C   0  0  0  0  0  0  0  0  0  0  0  0
    1.3364    0.1547    0.0706 C   0  0  0  0  0  0  0  0  0  0  0  0
   -0.0558   -0.1963   -0.4363 C   0  0  0  0  0  0  0  0  0  0  0  0
   -0.1118   -1.5724   -0.8473 O   0  0  0  0  0  0  0  0  0  0  0  0
   -0.7588   -2.3184    0.0904 C   0  0  0  0  0  0  0  0  0  0  0  0
   -0.8272   -3.5368    0.0585 O   0  0  0  0  0  0  0  0  0  0  0  0
   -1.3525   -1.4396    1.1615 C   0  0  0  0  0  0  0  0  0  0  0  0
   -0.6236   -1.6703    2.4801 C   0  0  0  0  0  0  0  0  0  0  0  0
   -1.2665   -0.0300    0.5136 C   0  0  0  0  0  0  0  0  0  0  0  0
   -1.1449    1.0761    1.5734 C   0  0  0  0  0  0  0  0  0  0  0  0
   -2.6096    0.1632   -0.2967 C   0  0  0  0  0  0  0  0  0  0  0  0
   -2.6985    1.1821   -1.4579 C   0  0  0  0  0  0  0  0  0  0  0  0
   -4.1228    1.1597   -2.0327 C   0  0  0  0  0  0  0  0  0  0  0  0
   -2.3357    2.6146   -1.0852 C   0  0  0  0  0  0  0  0  0  0  0  0
    2.2820   -0.8182    0.4305 C   0  0  0  0  0  0  0  0  0  0  0  0
    3.5595   -0.4596    0.8817 C   0  0  0  0  0  0  0  0  0  0  0  0
    7.0071    0.9480    2.0799 H   0  0  0  0  0  0  0  0  0  0  0  0
    5.7681   -0.1879    2.6273 H   0  0  0  0  0  0  0  0  0  0  0  0
    6.3801   -0.2369    0.9276 H   0  0  0  0  0  0  0  0  0  0  0  0
    3.2799    2.9075    0.6457 H   0  0  0  0  0  0  0  0  0  0  0  0
    1.0455    2.2931   -0.1587 H   0  0  0  0  0  0  0  0  0  0  0  0
   -0.1860    0.3898   -1.3500 H   0  0  0  0  0  0  0  0  0  0  0  0
   -2.4008   -1.7330    1.2984 H   0  0  0  0  0  0  0  0  0  0  0  0
   -0.6626   -2.7293    2.7598 H   0  0  0  0  0  0  0  0  0  0  0  0
    0.4318   -1.3934    2.4329 H   0  0  0  0  0  0  0  0  0  0  0  0
   -1.0915   -1.1026    3.2906 H   0  0  0  0  0  0  0  0  0  0  0  0
   -0.2783    0.9352    2.2270 H   0  0  0  0  0  0  0  0  0  0  0  0
   -2.0306    1.0929    2.2191 H   0  0  0  0  0  0  0  0  0  0  0  0
   -1.0432    2.0699    1.1375 H   0  0  0  0  0  0  0  0  0  0  0  0
   -2.8890   -0.8062   -0.7351 H   0  0  0  0  0  0  0  0  0  0  0  0
   -3.4095    0.3859    0.4243 H   0  0  0  0  0  0  0  0  0  0  0  0
   -2.0344    0.8601   -2.2681 H   0  0  0  0  0  0  0  0  0  0  0  0
   -4.3977    0.1502   -2.3564 H   0  0  0  0  0  0  0  0  0  0  0  0
   -4.8563    1.4906   -1.2894 H   0  0  0  0  0  0  0  0  0  0  0  0
   -4.2024    1.8188   -2.9039 H   0  0  0  0  0  0  0  0  0  0  0  0
   -2.8848    2.9490   -0.1991 H   0  0  0  0  0  0  0  0  0  0  0  0
   -2.5725    3.3034   -1.9039 H   0  0  0  0  0  0  0  0  0  0  0  0
   -1.2638    2.7129   -0.8986 H   0  0  0  0  0  0  0  0  0  0  0  0
    2.0470   -1.8789    0.3600 H   0  0  0  0  0  0  0  0  0  0  0  0
    4.2447   -1.2572    1.1492 H   0  0  0  0  0  0  0  0  0  0  0  0
  1  2  1  0
  2  3  1  0
  3  4  2  0
  4  5  1  0
  5  6  2  0
  6  7  1  0
  7  8  1  0
  8  9  1  0
  9 10  2  0
  9 11  1  0
 11 12  1  0
 11 13  1  0
 13 14  1  0
 13 15  1  0
 15 16  1  0
 16 17  1  0
 16 18  1  0
  6 19  1  0
 19 20  2  0
 20  3  1  0
 13  7  1  0
  1 21  1  0
  1 22  1  0
  1 23  1  0
  4 24  1  0
  5 25  1  0
  7 26  1  0
 11 27  1  0
 12 28  1  0
 12 29  1  0
 12 30  1  0
 14 31  1  0
 14 32  1  0
 14 33  1  0
 15 34  1  0
 15 35  1  0
 16 36  1  0
 17 37  1  0
 17 38  1  0
 17 39  1  0
 18 40  1  0
 18 41  1  0
 18 42  1  0
 19 43  1  0
 20 44  1  0
M  END
>  <energy_abs>  (224) 
48.14825015714145

>  <SMILES>  (224) 
COc1ccc(C2OC(=O)C(C)C2(C)CC(C)C)cc1

>  <cluster_no>  (224) 
224

>  <ccdc_id>  (224) 
33

>  <initial_conformation_id>  (224) 
42

>  <minimize_method>  (224) 
MMFF

$$$$
