#Put Keywords Here, check Charge and Multiplicity.

 

0  1
C           5.49030         2.45340         0.14690
O           4.99300         1.14800        -0.11790
C           3.71340         0.88120         0.28190
C           2.84480         1.77170         0.90690
C           1.55230         1.36340         1.26030
C           1.09700         0.06160         0.99120
C          -0.31750        -0.32840         1.38460
O          -0.29130        -1.60530         2.04830
C          -0.81120        -2.57070         1.23780
O          -0.87200        -3.75140         1.53900
C          -1.24840        -1.96910        -0.07430
C          -2.47940        -2.66390        -0.64010
C          -1.40060        -0.47500         0.28410
C          -2.78160        -0.20250         0.92880
C          -1.20680         0.40660        -0.98250
C          -1.32590         1.93710        -0.79450
C          -0.32970         2.65840        -1.71120
C          -2.73330         2.45110        -1.11870
C           1.98880        -0.82830         0.37780
C           3.27860        -0.41850         0.02410
H           4.90900         3.21270        -0.38660
H           6.51890         2.50090        -0.22350
H           5.51410         2.65650         1.22270
H           3.13790         2.79050         1.13640
H           0.90060         2.08300         1.75280
H          -0.65700         0.38920         2.14250
H          -0.42040        -2.10870        -0.78000
H          -3.28430        -2.74740         0.09750
H          -2.22830        -3.68630        -0.94480
H          -2.86250        -2.13980        -1.52070
H          -2.99920        -0.90540         1.74110
H          -3.59010        -0.28480         0.19470
H          -2.82550         0.80090         1.36540
H          -1.92820         0.08940        -1.74760
H          -0.22560         0.17180        -1.41480
H          -1.08960         2.21040         0.23890
H           0.69860         2.35210        -1.49590
H          -0.53180         2.44080        -2.76570
H          -0.38740         3.74320        -1.57160
H          -2.78520         3.53770        -0.98820
H          -3.00890         2.22650        -2.15500
H          -3.49230         2.01140        -0.46870
H           1.71070        -1.85900         0.17630
H           3.95460        -1.12600        -0.45080

