%NProcShared=1
%Mem=10GB

#p B3LYP/6-31G* opt freq

test

0  1
C           5.64590         2.26610         0.18820
O           4.79280         1.67350         1.15910
C           3.66810         1.05070         0.69520
C           3.26820         0.95790        -0.63420
C           2.08390         0.28790        -0.96790
C           1.26350        -0.29100         0.01600
C          -0.00760        -1.00920        -0.40550
O           0.09310        -2.37950         0.02390
C          -0.74600        -2.61030         1.07140
O          -0.81400        -3.67300         1.66720
C          -1.53710        -1.36710         1.39200
C          -2.95320        -1.70400         1.84460
C          -1.39920        -0.53480         0.09420
C          -2.46730        -0.97520        -0.94130
C          -1.54930         0.98150         0.41420
C          -1.86290         1.96650        -0.73570
C          -2.13140         3.36010        -0.15160
C          -0.76060         2.07200        -1.78320
C           1.69550        -0.21150         1.34660
C           2.87810         0.45860         1.67940
H           5.13220         3.06880        -0.35110
H           6.04020         1.51390        -0.50310
H           6.49520         2.71050         0.71600
H           3.85340         1.38960        -1.43920
H           1.80960         0.22380        -2.01960
H          -0.01760        -1.04880        -1.50180
H          -1.02900        -0.86260         2.22130
H          -3.56490        -0.80310         1.94840
H          -3.45560        -2.39280         1.15740
H          -2.92760        -2.20170         2.82080
H          -2.48120        -2.06280        -1.07570
H          -2.27360        -0.54190        -1.92800
H          -3.47250        -0.66350        -0.63710
H          -0.67120         1.34100         0.96330
H          -2.37910         1.07730         1.12890
H          -2.78560         1.65240        -1.23740
H          -1.24980         3.74960         0.36900
H          -2.39930         4.06930        -0.94220
H          -2.96190         3.33090         0.56180
H          -1.03610         2.79440        -2.55970
H          -0.58780         1.11770        -2.28500
H           0.17780         2.41360        -1.33630
H           1.14090        -0.67900         2.15340
H           3.19120         0.50890         2.72000

