
     RDKit          3D

 44 45  0  0  0  0  0  0  0  0999 V2000
    5.2503    2.7544    0.1778 C   0  0  0  0  0  0  0  0  0  0  0  0
    4.7715    1.5056   -0.3049 O   0  0  0  0  0  0  0  0  0  0  0  0
    3.5899    1.0541    0.2134 C   0  0  0  0  0  0  0  0  0  0  0  0
    2.8055    1.7067    1.1612 C   0  0  0  0  0  0  0  0  0  0  0  0
    1.6087    1.1290    1.6030 C   0  0  0  0  0  0  0  0  0  0  0  0
    1.1681   -0.1077    1.1029 C   0  0  0  0  0  0  0  0  0  0  0  0
   -0.1383   -0.6887    1.6074 C   0  0  0  0  0  0  0  0  0  0  0  0
   -0.0761   -2.1272    1.5944 O   0  0  0  0  0  0  0  0  0  0  0  0
   -0.8531   -2.6219    0.5888 C   0  0  0  0  0  0  0  0  0  0  0  0
   -0.9448   -3.8092    0.3232 O   0  0  0  0  0  0  0  0  0  0  0  0
   -1.5277   -1.4933   -0.1522 C   0  0  0  0  0  0  0  0  0  0  0  0
   -2.9174   -1.8909   -0.6306 C   0  0  0  0  0  0  0  0  0  0  0  0
   -1.4636   -0.3509    0.8724 C   0  0  0  0  0  0  0  0  0  0  0  0
   -2.6030   -0.4836    1.9301 C   0  0  0  0  0  0  0  0  0  0  0  0
   -1.5860    1.0911    0.2952 C   0  0  0  0  0  0  0  0  0  0  0  0
   -0.8619    1.4534   -1.0237 C   0  0  0  0  0  0  0  0  0  0  0  0
   -0.4715    2.9378   -1.0098 C   0  0  0  0  0  0  0  0  0  0  0  0
   -1.7351    1.2032   -2.2585 C   0  0  0  0  0  0  0  0  0  0  0  0
    1.9755   -0.7610    0.1614 C   0  0  0  0  0  0  0  0  0  0  0  0
    3.1694   -0.1814   -0.2790 C   0  0  0  0  0  0  0  0  0  0  0  0
    5.4496    2.7118    1.2537 H   0  0  0  0  0  0  0  0  0  0  0  0
    6.1970    2.9675   -0.3278 H   0  0  0  0  0  0  0  0  0  0  0  0
    4.5540    3.5641   -0.0641 H   0  0  0  0  0  0  0  0  0  0  0  0
    3.0932    2.6656    1.5789 H   0  0  0  0  0  0  0  0  0  0  0  0
    1.0184    1.6616    2.3467 H   0  0  0  0  0  0  0  0  0  0  0  0
   -0.2168   -0.4108    2.6669 H   0  0  0  0  0  0  0  0  0  0  0  0
   -0.8888   -1.2840   -1.0165 H   0  0  0  0  0  0  0  0  0  0  0  0
   -3.4824   -1.0255   -0.9886 H   0  0  0  0  0  0  0  0  0  0  0  0
   -2.8402   -2.6061   -1.4574 H   0  0  0  0  0  0  0  0  0  0  0  0
   -3.4990   -2.3845    0.1554 H   0  0  0  0  0  0  0  0  0  0  0  0
   -2.4797    0.2600    2.7266 H   0  0  0  0  0  0  0  0  0  0  0  0
   -3.5901   -0.3179    1.4848 H   0  0  0  0  0  0  0  0  0  0  0  0
   -2.6149   -1.4712    2.4046 H   0  0  0  0  0  0  0  0  0  0  0  0
   -2.6510    1.3224    0.1517 H   0  0  0  0  0  0  0  0  0  0  0  0
   -1.2581    1.7791    1.0867 H   0  0  0  0  0  0  0  0  0  0  0  0
    0.0561    0.8738   -1.1372 H   0  0  0  0  0  0  0  0  0  0  0  0
   -1.3551    3.5796   -0.9236 H   0  0  0  0  0  0  0  0  0  0  0  0
    0.0573    3.2102   -1.9295 H   0  0  0  0  0  0  0  0  0  0  0  0
    0.1926    3.1634   -0.1698 H   0  0  0  0  0  0  0  0  0  0  0  0
   -1.2154    1.5229   -3.1687 H   0  0  0  0  0  0  0  0  0  0  0  0
   -1.9751    0.1464   -2.3841 H   0  0  0  0  0  0  0  0  0  0  0  0
   -2.6769    1.7596   -2.2004 H   0  0  0  0  0  0  0  0  0  0  0  0
    1.6984   -1.7322   -0.2417 H   0  0  0  0  0  0  0  0  0  0  0  0
    3.7808   -0.7040   -1.0113 H   0  0  0  0  0  0  0  0  0  0  0  0
  1  2  1  0
  2  3  1  0
  3  4  2  0
  4  5  1  0
  5  6  2  0
  6  7  1  0
  7  8  1  0
  8  9  1  0
  9 10  2  0
  9 11  1  0
 11 12  1  0
 11 13  1  0
 13 14  1  0
 13 15  1  0
 15 16  1  0
 16 17  1  0
 16 18  1  0
  6 19  1  0
 19 20  2  0
 20  3  1  0
 13  7  1  0
  1 21  1  0
  1 22  1  0
  1 23  1  0
  4 24  1  0
  5 25  1  0
  7 26  1  0
 11 27  1  0
 12 28  1  0
 12 29  1  0
 12 30  1  0
 14 31  1  0
 14 32  1  0
 14 33  1  0
 15 34  1  0
 15 35  1  0
 16 36  1  0
 17 37  1  0
 17 38  1  0
 17 39  1  0
 18 40  1  0
 18 41  1  0
 18 42  1  0
 19 43  1  0
 20 44  1  0
M  END
>  <energy_abs>  (227) 
47.062229788422755

>  <SMILES>  (227) 
COc1ccc(C2OC(=O)C(C)C2(C)CC(C)C)cc1

>  <cluster_no>  (227) 
227

>  <ccdc_id>  (227) 
33

>  <initial_conformation_id>  (227) 
39

>  <minimize_method>  (227) 
MMFF

$$$$
