
     RDKit          3D

 44 45  0  0  0  0  0  0  0  0999 V2000
    6.2866    1.0721   -0.1157 C   0  0  0  0  0  0  0  0  0  0  0  0
    5.2026    1.7666    0.4883 O   0  0  0  0  0  0  0  0  0  0  0  0
    4.0162    1.0938    0.5848 C   0  0  0  0  0  0  0  0  0  0  0  0
    3.7651   -0.1991    0.1304 C   0  0  0  0  0  0  0  0  0  0  0  0
    2.4966   -0.7697    0.2933 C   0  0  0  0  0  0  0  0  0  0  0  0
    1.4553   -0.0590    0.9092 C   0  0  0  0  0  0  0  0  0  0  0  0
    0.0726   -0.6542    1.0861 C   0  0  0  0  0  0  0  0  0  0  0  0
    0.1360   -2.0872    1.1362 O   0  0  0  0  0  0  0  0  0  0  0  0
   -1.0479   -2.6045    0.7048 C   0  0  0  0  0  0  0  0  0  0  0  0
   -1.3180   -3.7945    0.7164 O   0  0  0  0  0  0  0  0  0  0  0  0
   -1.9722   -1.5017    0.2472 C   0  0  0  0  0  0  0  0  0  0  0  0
   -3.0263   -1.2918    1.3301 C   0  0  0  0  0  0  0  0  0  0  0  0
   -0.9796   -0.3428   -0.0073 C   0  0  0  0  0  0  0  0  0  0  0  0
   -0.3878   -0.5171   -1.4269 C   0  0  0  0  0  0  0  0  0  0  0  0
   -1.5702    1.0839    0.1698 C   0  0  0  0  0  0  0  0  0  0  0  0
   -2.7238    1.4761   -0.7850 C   0  0  0  0  0  0  0  0  0  0  0  0
   -2.2208    2.2413   -2.0142 C   0  0  0  0  0  0  0  0  0  0  0  0
   -3.7364    2.3631   -0.0491 C   0  0  0  0  0  0  0  0  0  0  0  0
    1.7230    1.2378    1.3694 C   0  0  0  0  0  0  0  0  0  0  0  0
    2.9892    1.8061    1.2048 C   0  0  0  0  0  0  0  0  0  0  0  0
    6.0649    0.8259   -1.1594 H   0  0  0  0  0  0  0  0  0  0  0  0
    7.1553    1.7376   -0.1084 H   0  0  0  0  0  0  0  0  0  0  0  0
    6.5492    0.1757    0.4557 H   0  0  0  0  0  0  0  0  0  0  0  0
    4.5315   -0.7955   -0.3531 H   0  0  0  0  0  0  0  0  0  0  0  0
    2.3324   -1.7842   -0.0668 H   0  0  0  0  0  0  0  0  0  0  0  0
   -0.2887   -0.3419    2.0760 H   0  0  0  0  0  0  0  0  0  0  0  0
   -2.4585   -1.8130   -0.6842 H   0  0  0  0  0  0  0  0  0  0  0  0
   -3.7665   -0.5475    1.0271 H   0  0  0  0  0  0  0  0  0  0  0  0
   -2.5849   -0.9741    2.2804 H   0  0  0  0  0  0  0  0  0  0  0  0
   -3.5668   -2.2252    1.5253 H   0  0  0  0  0  0  0  0  0  0  0  0
   -1.1770   -0.5319   -2.1859 H   0  0  0  0  0  0  0  0  0  0  0  0
    0.3017    0.2969   -1.6753 H   0  0  0  0  0  0  0  0  0  0  0  0
    0.1606   -1.4598   -1.5329 H   0  0  0  0  0  0  0  0  0  0  0  0
   -0.7665    1.8233    0.0647 H   0  0  0  0  0  0  0  0  0  0  0  0
   -1.9123    1.1831    1.2083 H   0  0  0  0  0  0  0  0  0  0  0  0
   -3.2532    0.5795   -1.1261 H   0  0  0  0  0  0  0  0  0  0  0  0
   -1.5217    1.6513   -2.6100 H   0  0  0  0  0  0  0  0  0  0  0  0
   -1.7133    3.1680   -1.7240 H   0  0  0  0  0  0  0  0  0  0  0  0
   -3.0574    2.5106   -2.6683 H   0  0  0  0  0  0  0  0  0  0  0  0
   -3.2671    3.2838    0.3145 H   0  0  0  0  0  0  0  0  0  0  0  0
   -4.1651    1.8396    0.8115 H   0  0  0  0  0  0  0  0  0  0  0  0
   -4.5633    2.6420   -0.7110 H   0  0  0  0  0  0  0  0  0  0  0  0
    0.9509    1.8211    1.8663 H   0  0  0  0  0  0  0  0  0  0  0  0
    3.1785    2.8138    1.5673 H   0  0  0  0  0  0  0  0  0  0  0  0
  1  2  1  0
  2  3  1  0
  3  4  2  0
  4  5  1  0
  5  6  2  0
  6  7  1  0
  7  8  1  0
  8  9  1  0
  9 10  2  0
  9 11  1  0
 11 12  1  0
 11 13  1  0
 13 14  1  0
 13 15  1  0
 15 16  1  0
 16 17  1  0
 16 18  1  0
  6 19  1  0
 19 20  2  0
 20  3  1  0
 13  7  1  0
  1 21  1  0
  1 22  1  0
  1 23  1  0
  4 24  1  0
  5 25  1  0
  7 26  1  0
 11 27  1  0
 12 28  1  0
 12 29  1  0
 12 30  1  0
 14 31  1  0
 14 32  1  0
 14 33  1  0
 15 34  1  0
 15 35  1  0
 16 36  1  0
 17 37  1  0
 17 38  1  0
 17 39  1  0
 18 40  1  0
 18 41  1  0
 18 42  1  0
 19 43  1  0
 20 44  1  0
M  END
>  <energy_abs>  (228) 
43.555450350324584

>  <SMILES>  (228) 
COc1ccc(C2OC(=O)C(C)C2(C)CC(C)C)cc1

>  <cluster_no>  (228) 
228

>  <ccdc_id>  (228) 
33

>  <initial_conformation_id>  (228) 
37

>  <minimize_method>  (228) 
MMFF

$$$$
