%NProcShared=1
%Mem=10GB

#p B3LYP/6-31G* opt freq

test

0  1
C           6.03650         1.59840         1.39860
O           5.24340         1.64090         0.21900
C           4.05350         0.96820         0.25130
C           3.53810         0.26100         1.33520
C           2.29940        -0.38410         1.23150
C           1.54970        -0.33110         0.04620
C           0.20280        -1.01690        -0.08310
O           0.14450        -2.16620         0.77670
C          -1.15190        -2.40280         1.12160
O          -1.51760        -3.34600         1.80370
C          -2.05650        -1.36200         0.50580
C          -2.69820        -2.00790        -0.72170
C          -1.06860        -0.19250         0.26890
C          -0.87140         0.56820         1.60200
C          -1.43900         0.77810        -0.88930
C          -2.55370         1.84650        -0.74250
C          -2.08220         3.11320        -0.01990
C          -3.87470         1.36120        -0.15600
C           2.08520         0.37430        -1.04060
C           3.32100         1.01880        -0.93490
H           6.94880         2.17210         1.20860
H           5.51720         2.06820         2.24040
H           6.33280         0.57190         1.63880
H           4.07210         0.18580         2.27650
H           1.92740        -0.93640         2.09310
H           0.13910        -1.40930        -1.10770
H          -2.82690        -1.08790         1.23370
H          -3.36280        -1.32300        -1.24980
H          -3.29820        -2.87550        -0.42300
H          -1.95210        -2.37200        -1.43610
H          -0.18840         1.41550         1.48020
H          -1.81860         0.95050         1.99170
H          -0.45960        -0.07360         2.38880
H          -1.67860         0.18030        -1.77830
H          -0.53350         1.32660        -1.17610
H          -2.77600         2.17040        -1.76990
H          -1.11660         3.45410        -0.40740
H          -2.80120         3.92580        -0.17540
H          -1.99060         2.97190         1.05900
H          -4.29670         0.54800        -0.75020
H          -4.61320         2.17120        -0.16130
H          -3.77390         1.02580         0.87830
H           1.55060         0.42720        -1.98640
H           3.71940         1.56260        -1.78830

