
     RDKit          3D

 44 45  0  0  0  0  0  0  0  0999 V2000
    6.0365    1.5984    1.3986 C   0  0  0  0  0  0  0  0  0  0  0  0
    5.2434    1.6409    0.2190 O   0  0  0  0  0  0  0  0  0  0  0  0
    4.0535    0.9682    0.2513 C   0  0  0  0  0  0  0  0  0  0  0  0
    3.5381    0.2610    1.3352 C   0  0  0  0  0  0  0  0  0  0  0  0
    2.2994   -0.3841    1.2315 C   0  0  0  0  0  0  0  0  0  0  0  0
    1.5497   -0.3311    0.0462 C   0  0  0  0  0  0  0  0  0  0  0  0
    0.2028   -1.0169   -0.0831 C   0  0  0  0  0  0  0  0  0  0  0  0
    0.1445   -2.1662    0.7767 O   0  0  0  0  0  0  0  0  0  0  0  0
   -1.1519   -2.4028    1.1216 C   0  0  0  0  0  0  0  0  0  0  0  0
   -1.5176   -3.3460    1.8037 O   0  0  0  0  0  0  0  0  0  0  0  0
   -2.0565   -1.3620    0.5058 C   0  0  0  0  0  0  0  0  0  0  0  0
   -2.6982   -2.0079   -0.7217 C   0  0  0  0  0  0  0  0  0  0  0  0
   -1.0686   -0.1925    0.2689 C   0  0  0  0  0  0  0  0  0  0  0  0
   -0.8714    0.5682    1.6020 C   0  0  0  0  0  0  0  0  0  0  0  0
   -1.4390    0.7781   -0.8893 C   0  0  0  0  0  0  0  0  0  0  0  0
   -2.5537    1.8465   -0.7425 C   0  0  0  0  0  0  0  0  0  0  0  0
   -2.0822    3.1132   -0.0199 C   0  0  0  0  0  0  0  0  0  0  0  0
   -3.8747    1.3612   -0.1560 C   0  0  0  0  0  0  0  0  0  0  0  0
    2.0852    0.3743   -1.0406 C   0  0  0  0  0  0  0  0  0  0  0  0
    3.3210    1.0188   -0.9349 C   0  0  0  0  0  0  0  0  0  0  0  0
    6.9488    2.1721    1.2086 H   0  0  0  0  0  0  0  0  0  0  0  0
    5.5172    2.0682    2.2404 H   0  0  0  0  0  0  0  0  0  0  0  0
    6.3328    0.5719    1.6388 H   0  0  0  0  0  0  0  0  0  0  0  0
    4.0721    0.1858    2.2765 H   0  0  0  0  0  0  0  0  0  0  0  0
    1.9274   -0.9364    2.0931 H   0  0  0  0  0  0  0  0  0  0  0  0
    0.1391   -1.4093   -1.1077 H   0  0  0  0  0  0  0  0  0  0  0  0
   -2.8269   -1.0879    1.2337 H   0  0  0  0  0  0  0  0  0  0  0  0
   -3.3628   -1.3230   -1.2498 H   0  0  0  0  0  0  0  0  0  0  0  0
   -3.2982   -2.8755   -0.4230 H   0  0  0  0  0  0  0  0  0  0  0  0
   -1.9521   -2.3720   -1.4361 H   0  0  0  0  0  0  0  0  0  0  0  0
   -0.1884    1.4155    1.4802 H   0  0  0  0  0  0  0  0  0  0  0  0
   -1.8186    0.9505    1.9917 H   0  0  0  0  0  0  0  0  0  0  0  0
   -0.4596   -0.0736    2.3888 H   0  0  0  0  0  0  0  0  0  0  0  0
   -1.6786    0.1803   -1.7783 H   0  0  0  0  0  0  0  0  0  0  0  0
   -0.5335    1.3266   -1.1761 H   0  0  0  0  0  0  0  0  0  0  0  0
   -2.7760    2.1704   -1.7699 H   0  0  0  0  0  0  0  0  0  0  0  0
   -1.1166    3.4541   -0.4074 H   0  0  0  0  0  0  0  0  0  0  0  0
   -2.8012    3.9258   -0.1754 H   0  0  0  0  0  0  0  0  0  0  0  0
   -1.9906    2.9719    1.0590 H   0  0  0  0  0  0  0  0  0  0  0  0
   -4.2967    0.5480   -0.7502 H   0  0  0  0  0  0  0  0  0  0  0  0
   -4.6132    2.1712   -0.1613 H   0  0  0  0  0  0  0  0  0  0  0  0
   -3.7739    1.0258    0.8783 H   0  0  0  0  0  0  0  0  0  0  0  0
    1.5506    0.4272   -1.9864 H   0  0  0  0  0  0  0  0  0  0  0  0
    3.7194    1.5626   -1.7883 H   0  0  0  0  0  0  0  0  0  0  0  0
  1  2  1  0
  2  3  1  0
  3  4  2  0
  4  5  1  0
  5  6  2  0
  6  7  1  0
  7  8  1  0
  8  9  1  0
  9 10  2  0
  9 11  1  0
 11 12  1  0
 11 13  1  0
 13 14  1  0
 13 15  1  0
 15 16  1  0
 16 17  1  0
 16 18  1  0
  6 19  1  0
 19 20  2  0
 20  3  1  0
 13  7  1  0
  1 21  1  0
  1 22  1  0
  1 23  1  0
  4 24  1  0
  5 25  1  0
  7 26  1  0
 11 27  1  0
 12 28  1  0
 12 29  1  0
 12 30  1  0
 14 31  1  0
 14 32  1  0
 14 33  1  0
 15 34  1  0
 15 35  1  0
 16 36  1  0
 17 37  1  0
 17 38  1  0
 17 39  1  0
 18 40  1  0
 18 41  1  0
 18 42  1  0
 19 43  1  0
 20 44  1  0
M  END
>  <energy_abs>  (229) 
47.643131318305265

>  <SMILES>  (229) 
COc1ccc(C2OC(=O)C(C)C2(C)CC(C)C)cc1

>  <cluster_no>  (229) 
229

>  <ccdc_id>  (229) 
33

>  <initial_conformation_id>  (229) 
36

>  <minimize_method>  (229) 
MMFF

$$$$
