
     RDKit          3D

 44 45  0  0  0  0  0  0  0  0999 V2000
    6.2223    1.3491    1.3209 C   0  0  0  0  0  0  0  0  0  0  0  0
    5.3637    1.5847    0.2121 O   0  0  0  0  0  0  0  0  0  0  0  0
    4.1595    0.9370    0.2160 C   0  0  0  0  0  0  0  0  0  0  0  0
    3.3622    1.1790   -0.9032 C   0  0  0  0  0  0  0  0  0  0  0  0
    2.1053    0.5810   -1.0288 C   0  0  0  0  0  0  0  0  0  0  0  0
    1.6152   -0.2710   -0.0292 C   0  0  0  0  0  0  0  0  0  0  0  0
    0.2444   -0.9032   -0.1755 C   0  0  0  0  0  0  0  0  0  0  0  0
    0.1858   -2.1451    0.5295 O   0  0  0  0  0  0  0  0  0  0  0  0
   -1.1134   -2.4300    0.8014 C   0  0  0  0  0  0  0  0  0  0  0  0
   -1.4911   -3.5056    1.2380 O   0  0  0  0  0  0  0  0  0  0  0  0
   -1.9997   -1.2442    0.4848 C   0  0  0  0  0  0  0  0  0  0  0  0
   -3.0424   -1.1151    1.5915 C   0  0  0  0  0  0  0  0  0  0  0  0
   -0.9924   -0.0842    0.3150 C   0  0  0  0  0  0  0  0  0  0  0  0
   -0.6857    0.6195    1.6550 C   0  0  0  0  0  0  0  0  0  0  0  0
   -1.3507    0.9503   -0.7989 C   0  0  0  0  0  0  0  0  0  0  0  0
   -2.6729    1.7470   -0.8507 C   0  0  0  0  0  0  0  0  0  0  0  0
   -2.9858    2.5773    0.3876 C   0  0  0  0  0  0  0  0  0  0  0  0
   -3.8784    0.9205   -1.2951 C   0  0  0  0  0  0  0  0  0  0  0  0
    2.4275   -0.5135    1.0893 C   0  0  0  0  0  0  0  0  0  0  0  0
    3.6872    0.0857    1.2126 C   0  0  0  0  0  0  0  0  0  0  0  0
    6.5022    0.2924    1.3866 H   0  0  0  0  0  0  0  0  0  0  0  0
    5.7666    1.6969    2.2538 H   0  0  0  0  0  0  0  0  0  0  0  0
    7.1383    1.9265    1.1628 H   0  0  0  0  0  0  0  0  0  0  0  0
    3.7259    1.8379   -1.6882 H   0  0  0  0  0  0  0  0  0  0  0  0
    1.5176    0.7868   -1.9205 H   0  0  0  0  0  0  0  0  0  0  0  0
    0.1306   -1.1767   -1.2348 H   0  0  0  0  0  0  0  0  0  0  0  0
   -2.4867   -1.4657   -0.4724 H   0  0  0  0  0  0  0  0  0  0  0  0
   -2.5895   -1.1576    2.5885 H   0  0  0  0  0  0  0  0  0  0  0  0
   -3.6176   -0.1925    1.5195 H   0  0  0  0  0  0  0  0  0  0  0  0
   -3.7533   -1.9479    1.5368 H   0  0  0  0  0  0  0  0  0  0  0  0
    0.0387    1.4310    1.5248 H   0  0  0  0  0  0  0  0  0  0  0  0
   -0.2733   -0.0791    2.3916 H   0  0  0  0  0  0  0  0  0  0  0  0
   -1.5744    1.0614    2.1088 H   0  0  0  0  0  0  0  0  0  0  0  0
   -1.2674    0.4444   -1.7716 H   0  0  0  0  0  0  0  0  0  0  0  0
   -0.5492    1.7025   -0.8081 H   0  0  0  0  0  0  0  0  0  0  0  0
   -2.5192    2.4783   -1.6588 H   0  0  0  0  0  0  0  0  0  0  0  0
   -3.3474    1.9676    1.2171 H   0  0  0  0  0  0  0  0  0  0  0  0
   -2.1058    3.1382    0.7183 H   0  0  0  0  0  0  0  0  0  0  0  0
   -3.7731    3.3065    0.1643 H   0  0  0  0  0  0  0  0  0  0  0  0
   -3.6460    0.3412   -2.1949 H   0  0  0  0  0  0  0  0  0  0  0  0
   -4.7202    1.5789   -1.5379 H   0  0  0  0  0  0  0  0  0  0  0  0
   -4.2243    0.2300   -0.5261 H   0  0  0  0  0  0  0  0  0  0  0  0
    2.0876   -1.1787    1.8815 H   0  0  0  0  0  0  0  0  0  0  0  0
    4.2711   -0.1382    2.0991 H   0  0  0  0  0  0  0  0  0  0  0  0
  1  2  1  0
  2  3  1  0
  3  4  2  0
  4  5  1  0
  5  6  2  0
  6  7  1  0
  7  8  1  0
  8  9  1  0
  9 10  2  0
  9 11  1  0
 11 12  1  0
 11 13  1  0
 13 14  1  0
 13 15  1  0
 15 16  1  0
 16 17  1  0
 16 18  1  0
  6 19  1  0
 19 20  2  0
 20  3  1  0
 13  7  1  0
  1 21  1  0
  1 22  1  0
  1 23  1  0
  4 24  1  0
  5 25  1  0
  7 26  1  0
 11 27  1  0
 12 28  1  0
 12 29  1  0
 12 30  1  0
 14 31  1  0
 14 32  1  0
 14 33  1  0
 15 34  1  0
 15 35  1  0
 16 36  1  0
 17 37  1  0
 17 38  1  0
 17 39  1  0
 18 40  1  0
 18 41  1  0
 18 42  1  0
 19 43  1  0
 20 44  1  0
M  END
>  <energy_abs>  (232) 
48.58171377978576

>  <SMILES>  (232) 
COc1ccc(C2OC(=O)C(C)C2(C)CC(C)C)cc1

>  <cluster_no>  (232) 
232

>  <ccdc_id>  (232) 
33

>  <initial_conformation_id>  (232) 
32

>  <minimize_method>  (232) 
MMFF

$$$$
