%NProcShared=1
%Mem=10GB

#p B3LYP/6-31G* opt freq

test

0  1
C           6.22230         1.34910         1.32090
O           5.36370         1.58470         0.21210
C           4.15950         0.93700         0.21600
C           3.36220         1.17900        -0.90320
C           2.10530         0.58100        -1.02880
C           1.61520        -0.27100        -0.02920
C           0.24440        -0.90320        -0.17550
O           0.18580        -2.14510         0.52950
C          -1.11340        -2.43000         0.80140
O          -1.49110        -3.50560         1.23800
C          -1.99970        -1.24420         0.48480
C          -3.04240        -1.11510         1.59150
C          -0.99240        -0.08420         0.31500
C          -0.68570         0.61950         1.65500
C          -1.35070         0.95030        -0.79890
C          -2.67290         1.74700        -0.85070
C          -2.98580         2.57730         0.38760
C          -3.87840         0.92050        -1.29510
C           2.42750        -0.51350         1.08930
C           3.68720         0.08570         1.21260
H           6.50220         0.29240         1.38660
H           5.76660         1.69690         2.25380
H           7.13830         1.92650         1.16280
H           3.72590         1.83790        -1.68820
H           1.51760         0.78680        -1.92050
H           0.13060        -1.17670        -1.23480
H          -2.48670        -1.46570        -0.47240
H          -2.58950        -1.15760         2.58850
H          -3.61760        -0.19250         1.51950
H          -3.75330        -1.94790         1.53680
H           0.03870         1.43100         1.52480
H          -0.27330        -0.07910         2.39160
H          -1.57440         1.06140         2.10880
H          -1.26740         0.44440        -1.77160
H          -0.54920         1.70250        -0.80810
H          -2.51920         2.47830        -1.65880
H          -3.34740         1.96760         1.21710
H          -2.10580         3.13820         0.71830
H          -3.77310         3.30650         0.16430
H          -3.64600         0.34120        -2.19490
H          -4.72020         1.57890        -1.53790
H          -4.22430         0.23000        -0.52610
H           2.08760        -1.17870         1.88150
H           4.27110        -0.13820         2.09910

