
     RDKit          3D

 44 45  0  0  0  0  0  0  0  0999 V2000
    5.8251    0.5270   -1.3732 C   0  0  0  0  0  0  0  0  0  0  0  0
    5.0433    1.3836   -0.5502 O   0  0  0  0  0  0  0  0  0  0  0  0
    3.8738    0.8713   -0.0614 C   0  0  0  0  0  0  0  0  0  0  0  0
    3.1590    1.7349    0.7682 C   0  0  0  0  0  0  0  0  0  0  0  0
    1.9455    1.3380    1.3359 C   0  0  0  0  0  0  0  0  0  0  0  0
    1.4146    0.0636    1.0798 C   0  0  0  0  0  0  0  0  0  0  0  0
    0.0808   -0.3211    1.6991 C   0  0  0  0  0  0  0  0  0  0  0  0
    0.0767   -1.7228    2.0075 O   0  0  0  0  0  0  0  0  0  0  0  0
   -0.7056   -2.3942    1.1198 C   0  0  0  0  0  0  0  0  0  0  0  0
   -0.8061   -3.6105    1.0955 O   0  0  0  0  0  0  0  0  0  0  0  0
   -1.3825   -1.4346    0.1696 C   0  0  0  0  0  0  0  0  0  0  0  0
   -2.7979   -1.9173   -0.1264 C   0  0  0  0  0  0  0  0  0  0  0  0
   -1.2322   -0.0792    0.8866 C   0  0  0  0  0  0  0  0  0  0  0  0
   -2.3492    0.1625    1.9302 C   0  0  0  0  0  0  0  0  0  0  0  0
   -1.1051    1.1323   -0.0858 C   0  0  0  0  0  0  0  0  0  0  0  0
   -2.1967    1.4097   -1.1455 C   0  0  0  0  0  0  0  0  0  0  0  0
   -3.5209    1.9107   -0.5726 C   0  0  0  0  0  0  0  0  0  0  0  0
   -1.6674    2.4630   -2.1336 C   0  0  0  0  0  0  0  0  0  0  0  0
    2.1437   -0.7988    0.2474 C   0  0  0  0  0  0  0  0  0  0  0  0
    3.3616   -0.3987   -0.3184 C   0  0  0  0  0  0  0  0  0  0  0  0
    6.7247    1.0761   -1.6675 H   0  0  0  0  0  0  0  0  0  0  0  0
    6.1442   -0.3653   -0.8245 H   0  0  0  0  0  0  0  0  0  0  0  0
    5.2854    0.2581   -2.2873 H   0  0  0  0  0  0  0  0  0  0  0  0
    3.5527    2.7269    0.9772 H   0  0  0  0  0  0  0  0  0  0  0  0
    1.4169    2.0386    1.9792 H   0  0  0  0  0  0  0  0  0  0  0  0
    0.0214    0.1944    2.6669 H   0  0  0  0  0  0  0  0  0  0  0  0
   -0.7956   -1.4365   -0.7575 H   0  0  0  0  0  0  0  0  0  0  0  0
   -3.3530   -2.1473    0.7896 H   0  0  0  0  0  0  0  0  0  0  0  0
   -3.3716   -1.1906   -0.7041 H   0  0  0  0  0  0  0  0  0  0  0  0
   -2.7642   -2.8446   -0.7102 H   0  0  0  0  0  0  0  0  0  0  0  0
   -2.2212    1.1362    2.4170 H   0  0  0  0  0  0  0  0  0  0  0  0
   -3.3500    0.1365    1.5007 H   0  0  0  0  0  0  0  0  0  0  0  0
   -2.3337   -0.5983    2.7199 H   0  0  0  0  0  0  0  0  0  0  0  0
   -0.1815    0.9957   -0.6618 H   0  0  0  0  0  0  0  0  0  0  0  0
   -0.9538    2.0442    0.5082 H   0  0  0  0  0  0  0  0  0  0  0  0
   -2.3803    0.5012   -1.7280 H   0  0  0  0  0  0  0  0  0  0  0  0
   -4.1041    1.0966   -0.1395 H   0  0  0  0  0  0  0  0  0  0  0  0
   -4.1491    2.3471   -1.3575 H   0  0  0  0  0  0  0  0  0  0  0  0
   -3.3626    2.6770    0.1931 H   0  0  0  0  0  0  0  0  0  0  0  0
   -2.3957    2.6534   -2.9293 H   0  0  0  0  0  0  0  0  0  0  0  0
   -0.7425    2.1223   -2.6114 H   0  0  0  0  0  0  0  0  0  0  0  0
   -1.4599    3.4123   -1.6279 H   0  0  0  0  0  0  0  0  0  0  0  0
    1.7863   -1.8031    0.0314 H   0  0  0  0  0  0  0  0  0  0  0  0
    3.8840   -1.1084   -0.9515 H   0  0  0  0  0  0  0  0  0  0  0  0
  1  2  1  0
  2  3  1  0
  3  4  2  0
  4  5  1  0
  5  6  2  0
  6  7  1  0
  7  8  1  0
  8  9  1  0
  9 10  2  0
  9 11  1  0
 11 12  1  0
 11 13  1  0
 13 14  1  0
 13 15  1  0
 15 16  1  0
 16 17  1  0
 16 18  1  0
  6 19  1  0
 19 20  2  0
 20  3  1  0
 13  7  1  0
  1 21  1  0
  1 22  1  0
  1 23  1  0
  4 24  1  0
  5 25  1  0
  7 26  1  0
 11 27  1  0
 12 28  1  0
 12 29  1  0
 12 30  1  0
 14 31  1  0
 14 32  1  0
 14 33  1  0
 15 34  1  0
 15 35  1  0
 16 36  1  0
 17 37  1  0
 17 38  1  0
 17 39  1  0
 18 40  1  0
 18 41  1  0
 18 42  1  0
 19 43  1  0
 20 44  1  0
M  END
>  <energy_abs>  (233) 
47.13285998575334

>  <SMILES>  (233) 
COc1ccc(C2OC(=O)C(C)C2(C)CC(C)C)cc1

>  <cluster_no>  (233) 
233

>  <ccdc_id>  (233) 
33

>  <initial_conformation_id>  (233) 
31

>  <minimize_method>  (233) 
MMFF

$$$$
