#Put Keywords Here, check Charge and Multiplicity.

 

0  1
C           5.82510         0.52700        -1.37320
O           5.04330         1.38360        -0.55020
C           3.87380         0.87130        -0.06140
C           3.15900         1.73490         0.76820
C           1.94550         1.33800         1.33590
C           1.41460         0.06360         1.07980
C           0.08080        -0.32110         1.69910
O           0.07670        -1.72280         2.00750
C          -0.70560        -2.39420         1.11980
O          -0.80610        -3.61050         1.09550
C          -1.38250        -1.43460         0.16960
C          -2.79790        -1.91730        -0.12640
C          -1.23220        -0.07920         0.88660
C          -2.34920         0.16250         1.93020
C          -1.10510         1.13230        -0.08580
C          -2.19670         1.40970        -1.14550
C          -3.52090         1.91070        -0.57260
C          -1.66740         2.46300        -2.13360
C           2.14370        -0.79880         0.24740
C           3.36160        -0.39870        -0.31840
H           6.72470         1.07610        -1.66750
H           6.14420        -0.36530        -0.82450
H           5.28540         0.25810        -2.28730
H           3.55270         2.72690         0.97720
H           1.41690         2.03860         1.97920
H           0.02140         0.19440         2.66690
H          -0.79560        -1.43650        -0.75750
H          -3.35300        -2.14730         0.78960
H          -3.37160        -1.19060        -0.70410
H          -2.76420        -2.84460        -0.71020
H          -2.22120         1.13620         2.41700
H          -3.35000         0.13650         1.50070
H          -2.33370        -0.59830         2.71990
H          -0.18150         0.99570        -0.66180
H          -0.95380         2.04420         0.50820
H          -2.38030         0.50120        -1.72800
H          -4.10410         1.09660        -0.13950
H          -4.14910         2.34710        -1.35750
H          -3.36260         2.67700         0.19310
H          -2.39570         2.65340        -2.92930
H          -0.74250         2.12230        -2.61140
H          -1.45990         3.41230        -1.62790
H           1.78630        -1.80310         0.03140
H           3.88400        -1.10840        -0.95150

