
     RDKit          3D

 44 45  0  0  0  0  0  0  0  0999 V2000
    6.3278    0.4347    0.9623 C   0  0  0  0  0  0  0  0  0  0  0  0
    5.3663    1.2697    0.3293 O   0  0  0  0  0  0  0  0  0  0  0  0
    4.0954    0.7776    0.2242 C   0  0  0  0  0  0  0  0  0  0  0  0
    3.6483   -0.4535    0.6974 C   0  0  0  0  0  0  0  0  0  0  0  0
    2.3111   -0.8356    0.5237 C   0  0  0  0  0  0  0  0  0  0  0  0
    1.3924    0.0064   -0.1219 C   0  0  0  0  0  0  0  0  0  0  0  0
   -0.0701   -0.3674   -0.3221 C   0  0  0  0  0  0  0  0  0  0  0  0
   -0.2255   -1.7995   -0.3395 O   0  0  0  0  0  0  0  0  0  0  0  0
   -0.7480   -2.2241    0.8463 C   0  0  0  0  0  0  0  0  0  0  0  0
   -0.9424   -3.3956    1.1242 O   0  0  0  0  0  0  0  0  0  0  0  0
   -0.9841   -1.0427    1.7500 C   0  0  0  0  0  0  0  0  0  0  0  0
   -2.1490   -1.2702    2.7015 C   0  0  0  0  0  0  0  0  0  0  0  0
   -1.0963    0.1243    0.7355 C   0  0  0  0  0  0  0  0  0  0  0  0
   -0.7458    1.4513    1.4241 C   0  0  0  0  0  0  0  0  0  0  0  0
   -2.5384    0.2034    0.1144 C   0  0  0  0  0  0  0  0  0  0  0  0
   -2.9549    1.4753   -0.6679 C   0  0  0  0  0  0  0  0  0  0  0  0
   -4.4393    1.3677   -1.0463 C   0  0  0  0  0  0  0  0  0  0  0  0
   -2.1423    1.7408   -1.9309 C   0  0  0  0  0  0  0  0  0  0  0  0
    1.8610    1.2384   -0.6039 C   0  0  0  0  0  0  0  0  0  0  0  0
    3.1945    1.6185   -0.4279 C   0  0  0  0  0  0  0  0  0  0  0  0
    7.2853    0.9644    0.9576 H   0  0  0  0  0  0  0  0  0  0  0  0
    6.4625   -0.5015    0.4105 H   0  0  0  0  0  0  0  0  0  0  0  0
    6.0581    0.2439    2.0063 H   0  0  0  0  0  0  0  0  0  0  0  0
    4.3122   -1.1473    1.2027 H   0  0  0  0  0  0  0  0  0  0  0  0
    2.0103   -1.8133    0.8943 H   0  0  0  0  0  0  0  0  0  0  0  0
   -0.3457   -0.0444   -1.3282 H   0  0  0  0  0  0  0  0  0  0  0  0
   -0.0743   -0.9269    2.3541 H   0  0  0  0  0  0  0  0  0  0  0  0
   -1.8748   -2.0150    3.4576 H   0  0  0  0  0  0  0  0  0  0  0  0
   -3.0331   -1.6642    2.1895 H   0  0  0  0  0  0  0  0  0  0  0  0
   -2.4203   -0.3498    3.2270 H   0  0  0  0  0  0  0  0  0  0  0  0
   -0.6235    2.2654    0.7037 H   0  0  0  0  0  0  0  0  0  0  0  0
    0.1832    1.3812    2.0005 H   0  0  0  0  0  0  0  0  0  0  0  0
   -1.5329    1.7444    2.1280 H   0  0  0  0  0  0  0  0  0  0  0  0
   -3.2641    0.1282    0.9328 H   0  0  0  0  0  0  0  0  0  0  0  0
   -2.7139   -0.6765   -0.5191 H   0  0  0  0  0  0  0  0  0  0  0  0
   -2.8597    2.3469   -0.0095 H   0  0  0  0  0  0  0  0  0  0  0  0
   -5.0616    1.2351   -0.1548 H   0  0  0  0  0  0  0  0  0  0  0  0
   -4.6178    0.5187   -1.7151 H   0  0  0  0  0  0  0  0  0  0  0  0
   -4.7798    2.2768   -1.5537 H   0  0  0  0  0  0  0  0  0  0  0  0
   -2.5617    2.5823   -2.4937 H   0  0  0  0  0  0  0  0  0  0  0  0
   -1.1116    2.0092   -1.6903 H   0  0  0  0  0  0  0  0  0  0  0  0
   -2.1358    0.8685   -2.5925 H   0  0  0  0  0  0  0  0  0  0  0  0
    1.1935    1.9208   -1.1246 H   0  0  0  0  0  0  0  0  0  0  0  0
    3.5351    2.5792   -0.8070 H   0  0  0  0  0  0  0  0  0  0  0  0
  1  2  1  0
  2  3  1  0
  3  4  2  0
  4  5  1  0
  5  6  2  0
  6  7  1  0
  7  8  1  0
  8  9  1  0
  9 10  2  0
  9 11  1  0
 11 12  1  0
 11 13  1  0
 13 14  1  0
 13 15  1  0
 15 16  1  0
 16 17  1  0
 16 18  1  0
  6 19  1  0
 19 20  2  0
 20  3  1  0
 13  7  1  0
  1 21  1  0
  1 22  1  0
  1 23  1  0
  4 24  1  0
  5 25  1  0
  7 26  1  0
 11 27  1  0
 12 28  1  0
 12 29  1  0
 12 30  1  0
 14 31  1  0
 14 32  1  0
 14 33  1  0
 15 34  1  0
 15 35  1  0
 16 36  1  0
 17 37  1  0
 17 38  1  0
 17 39  1  0
 18 40  1  0
 18 41  1  0
 18 42  1  0
 19 43  1  0
 20 44  1  0
M  END
>  <energy_abs>  (234) 
45.4137832413647

>  <SMILES>  (234) 
COc1ccc(C2OC(=O)C(C)C2(C)CC(C)C)cc1

>  <cluster_no>  (234) 
234

>  <ccdc_id>  (234) 
33

>  <initial_conformation_id>  (234) 
30

>  <minimize_method>  (234) 
MMFF

$$$$
