
     RDKit          3D

 44 45  0  0  0  0  0  0  0  0999 V2000
    5.9496    1.0505   -1.3880 C   0  0  0  0  0  0  0  0  0  0  0  0
    5.2093    1.6252   -0.3184 O   0  0  0  0  0  0  0  0  0  0  0  0
    4.0413    1.0037    0.0269 C   0  0  0  0  0  0  0  0  0  0  0  0
    3.5014   -0.1278   -0.5806 C   0  0  0  0  0  0  0  0  0  0  0  0
    2.2901   -0.6627   -0.1249 C   0  0  0  0  0  0  0  0  0  0  0  0
    1.5946   -0.0752    0.9432 C   0  0  0  0  0  0  0  0  0  0  0  0
    0.2777   -0.6331    1.4454 C   0  0  0  0  0  0  0  0  0  0  0  0
    0.1262   -2.0112    1.0765 O   0  0  0  0  0  0  0  0  0  0  0  0
   -1.1997   -2.3227    1.1125 C   0  0  0  0  0  0  0  0  0  0  0  0
   -1.6408   -3.4472    0.9450 O   0  0  0  0  0  0  0  0  0  0  0  0
   -2.0039   -1.0820    1.4206 C   0  0  0  0  0  0  0  0  0  0  0  0
   -3.3922   -1.1456    0.8283 C   0  0  0  0  0  0  0  0  0  0  0  0
   -1.0528    0.0510    0.9764 C   0  0  0  0  0  0  0  0  0  0  0  0
   -1.2911    1.3155    1.8129 C   0  0  0  0  0  0  0  0  0  0  0  0
   -0.9900    0.3407   -0.5679 C   0  0  0  0  0  0  0  0  0  0  0  0
   -2.0240    1.1371   -1.4129 C   0  0  0  0  0  0  0  0  0  0  0  0
   -2.6509    2.3678   -0.7725 C   0  0  0  0  0  0  0  0  0  0  0  0
   -3.0959    0.2855   -2.0943 C   0  0  0  0  0  0  0  0  0  0  0  0
    2.1514    1.0588    1.5507 C   0  0  0  0  0  0  0  0  0  0  0  0
    3.3601    1.5913    1.0936 C   0  0  0  0  0  0  0  0  0  0  0  0
    5.3782    1.0758   -2.3217 H   0  0  0  0  0  0  0  0  0  0  0  0
    6.2677    0.0311   -1.1455 H   0  0  0  0  0  0  0  0  0  0  0  0
    6.8506    1.6544   -1.5330 H   0  0  0  0  0  0  0  0  0  0  0  0
    3.9943   -0.6230   -1.4105 H   0  0  0  0  0  0  0  0  0  0  0  0
    1.8939   -1.5486   -0.6188 H   0  0  0  0  0  0  0  0  0  0  0  0
    0.3438   -0.6362    2.5442 H   0  0  0  0  0  0  0  0  0  0  0  0
   -2.1104   -1.0568    2.5151 H   0  0  0  0  0  0  0  0  0  0  0  0
   -3.3802   -1.5498   -0.1863 H   0  0  0  0  0  0  0  0  0  0  0  0
   -3.8836   -0.1700    0.8457 H   0  0  0  0  0  0  0  0  0  0  0  0
   -4.0152   -1.8323    1.4140 H   0  0  0  0  0  0  0  0  0  0  0  0
   -2.3377    1.6264    1.7908 H   0  0  0  0  0  0  0  0  0  0  0  0
   -0.6688    2.1479    1.4706 H   0  0  0  0  0  0  0  0  0  0  0  0
   -1.0513    1.1479    2.8697 H   0  0  0  0  0  0  0  0  0  0  0  0
   -0.0729    0.9295   -0.7110 H   0  0  0  0  0  0  0  0  0  0  0  0
   -0.7933   -0.6046   -1.0918 H   0  0  0  0  0  0  0  0  0  0  0  0
   -1.4267    1.5252   -2.2533 H   0  0  0  0  0  0  0  0  0  0  0  0
   -3.1797    2.9596   -1.5290 H   0  0  0  0  0  0  0  0  0  0  0  0
   -1.8906    3.0198   -0.3335 H   0  0  0  0  0  0  0  0  0  0  0  0
   -3.3877    2.1002   -0.0113 H   0  0  0  0  0  0  0  0  0  0  0  0
   -3.4673    0.8006   -2.9884 H   0  0  0  0  0  0  0  0  0  0  0  0
   -2.7000   -0.6814   -2.4194 H   0  0  0  0  0  0  0  0  0  0  0  0
   -3.9655    0.1224   -1.4549 H   0  0  0  0  0  0  0  0  0  0  0  0
    1.6554    1.5398    2.3905 H   0  0  0  0  0  0  0  0  0  0  0  0
    3.7774    2.4719    1.5763 H   0  0  0  0  0  0  0  0  0  0  0  0
  1  2  1  0
  2  3  1  0
  3  4  2  0
  4  5  1  0
  5  6  2  0
  6  7  1  0
  7  8  1  0
  8  9  1  0
  9 10  2  0
  9 11  1  0
 11 12  1  0
 11 13  1  0
 13 14  1  0
 13 15  1  0
 15 16  1  0
 16 17  1  0
 16 18  1  0
  6 19  1  0
 19 20  2  0
 20  3  1  0
 13  7  1  0
  1 21  1  0
  1 22  1  0
  1 23  1  0
  4 24  1  0
  5 25  1  0
  7 26  1  0
 11 27  1  0
 12 28  1  0
 12 29  1  0
 12 30  1  0
 14 31  1  0
 14 32  1  0
 14 33  1  0
 15 34  1  0
 15 35  1  0
 16 36  1  0
 17 37  1  0
 17 38  1  0
 17 39  1  0
 18 40  1  0
 18 41  1  0
 18 42  1  0
 19 43  1  0
 20 44  1  0
M  END
>  <energy_abs>  (235) 
55.89183542161925

>  <SMILES>  (235) 
COc1ccc(C2OC(=O)C(C)C2(C)CC(C)C)cc1

>  <cluster_no>  (235) 
235

>  <ccdc_id>  (235) 
33

>  <initial_conformation_id>  (235) 
29

>  <minimize_method>  (235) 
MMFF

$$$$
