%NProcShared=1
%Mem=10GB

#p B3LYP/6-31G* opt freq

test

0  1
C           5.89190         2.21020        -0.21660
O           5.19970         1.10530        -0.78340
C           4.01490         0.75190        -0.19980
C           3.41590         1.38010         0.89010
C           2.19310         0.91310         1.38860
C           1.54400        -0.18630         0.80540
C           0.21520        -0.66290         1.36030
O          -0.04450        -2.02760         1.00060
C          -1.39020        -2.24030         1.00410
O          -1.91020        -3.33120         0.83470
C          -2.12850        -0.95340         1.27760
C          -2.61790        -0.96940         2.72390
C          -1.06350         0.10550         0.92180
C          -1.18850         1.41480         1.71850
C          -1.03080         0.39340        -0.62220
C          -2.33830         0.70850        -1.38810
C          -3.14800         1.86910        -0.82120
C          -1.99750         1.00070        -2.85670
C           2.16190        -0.81500        -0.28420
C           3.38180        -0.34700        -0.78070
H           6.17480         2.00860         0.82190
H           5.30050         3.12850        -0.29470
H           6.81240         2.35770        -0.78950
H           3.87270         2.23410         1.37860
H           1.75550         1.41920         2.24660
H           0.31680        -0.66600         2.45490
H          -2.99670        -0.89820         0.61780
H          -3.28310        -1.82390         2.89300
H          -1.79420        -1.06020         3.43950
H          -3.18280        -0.06220         2.95920
H          -0.92880         1.27230         2.77360
H          -0.52020         2.18830         1.32580
H          -2.20350         1.81590         1.70070
H          -0.32370         1.21490        -0.80390
H          -0.59710        -0.48060        -1.12730
H          -2.97520        -0.18360        -1.39000
H          -2.52240         2.75260        -0.65850
H          -3.95630         2.15290        -1.50440
H          -3.62430         1.59050         0.12240
H          -1.37800         1.89920        -2.94960
H          -1.45230         0.16330        -3.30510
H          -2.90840         1.15490        -3.44520
H           1.70190        -1.67830        -0.76150
H           3.84340        -0.84830        -1.62830

