
     RDKit          3D

 44 45  0  0  0  0  0  0  0  0999 V2000
    6.4471   -0.0362    0.9399 C   0  0  0  0  0  0  0  0  0  0  0  0
    5.5831    1.0130    0.5214 O   0  0  0  0  0  0  0  0  0  0  0  0
    4.2640    0.6960    0.3527 C   0  0  0  0  0  0  0  0  0  0  0  0
    3.6824   -0.5498    0.5775 C   0  0  0  0  0  0  0  0  0  0  0  0
    2.3101   -0.7391    0.3663 C   0  0  0  0  0  0  0  0  0  0  0  0
    1.4926    0.3138   -0.0711 C   0  0  0  0  0  0  0  0  0  0  0  0
   -0.0037    0.1578   -0.3011 C   0  0  0  0  0  0  0  0  0  0  0  0
   -0.3062   -1.1967   -0.6790 O   0  0  0  0  0  0  0  0  0  0  0  0
   -0.8976   -1.8546    0.3608 C   0  0  0  0  0  0  0  0  0  0  0  0
   -1.2170   -3.0314    0.3284 O   0  0  0  0  0  0  0  0  0  0  0  0
   -1.0422   -0.9290    1.5392 C   0  0  0  0  0  0  0  0  0  0  0  0
   -2.2682   -1.2179    2.3900 C   0  0  0  0  0  0  0  0  0  0  0  0
   -0.9570    0.4570    0.8771 C   0  0  0  0  0  0  0  0  0  0  0  0
   -0.3976    1.4859    1.8842 C   0  0  0  0  0  0  0  0  0  0  0  0
   -2.3333    1.0360    0.3873 C   0  0  0  0  0  0  0  0  0  0  0  0
   -3.2189    0.2491   -0.6129 C   0  0  0  0  0  0  0  0  0  0  0  0
   -4.6855    0.6664   -0.4190 C   0  0  0  0  0  0  0  0  0  0  0  0
   -2.8467    0.4894   -2.0786 C   0  0  0  0  0  0  0  0  0  0  0  0
    2.0935    1.5615   -0.3021 C   0  0  0  0  0  0  0  0  0  0  0  0
    3.4619    1.7481   -0.0886 C   0  0  0  0  0  0  0  0  0  0  0  0
    6.1641   -0.4089    1.9299 H   0  0  0  0  0  0  0  0  0  0  0  0
    6.4706   -0.8463    0.2035 H   0  0  0  0  0  0  0  0  0  0  0  0
    7.4587    0.3741    1.0156 H   0  0  0  0  0  0  0  0  0  0  0  0
    4.2658   -1.4008    0.9133 H   0  0  0  0  0  0  0  0  0  0  0  0
    1.8996   -1.7315    0.5394 H   0  0  0  0  0  0  0  0  0  0  0  0
   -0.2500    0.7917   -1.1594 H   0  0  0  0  0  0  0  0  0  0  0  0
   -0.1542   -1.0987    2.1634 H   0  0  0  0  0  0  0  0  0  0  0  0
   -3.1898   -1.2640    1.8042 H   0  0  0  0  0  0  0  0  0  0  0  0
   -2.1641   -2.1926    2.8802 H   0  0  0  0  0  0  0  0  0  0  0  0
   -2.3908   -0.4644    3.1739 H   0  0  0  0  0  0  0  0  0  0  0  0
    0.5415    1.1541    2.3394 H   0  0  0  0  0  0  0  0  0  0  0  0
   -0.2195    2.4540    1.4035 H   0  0  0  0  0  0  0  0  0  0  0  0
   -1.1021    1.6526    2.7073 H   0  0  0  0  0  0  0  0  0  0  0  0
   -2.9338    1.2228    1.2890 H   0  0  0  0  0  0  0  0  0  0  0  0
   -2.1507    2.0337   -0.0374 H   0  0  0  0  0  0  0  0  0  0  0  0
   -3.1694   -0.8247   -0.4171 H   0  0  0  0  0  0  0  0  0  0  0  0
   -4.8213    1.7376   -0.6041 H   0  0  0  0  0  0  0  0  0  0  0  0
   -5.3423    0.1172   -1.1022 H   0  0  0  0  0  0  0  0  0  0  0  0
   -5.0207    0.4511    0.6013 H   0  0  0  0  0  0  0  0  0  0  0  0
   -2.7878    1.5591   -2.3058 H   0  0  0  0  0  0  0  0  0  0  0  0
   -1.8927    0.0298   -2.3409 H   0  0  0  0  0  0  0  0  0  0  0  0
   -3.5958    0.0484   -2.7461 H   0  0  0  0  0  0  0  0  0  0  0  0
    1.5008    2.4050   -0.6506 H   0  0  0  0  0  0  0  0  0  0  0  0
    3.9077    2.7229   -0.2714 H   0  0  0  0  0  0  0  0  0  0  0  0
  1  2  1  0
  2  3  1  0
  3  4  2  0
  4  5  1  0
  5  6  2  0
  6  7  1  0
  7  8  1  0
  8  9  1  0
  9 10  2  0
  9 11  1  0
 11 12  1  0
 11 13  1  0
 13 14  1  0
 13 15  1  0
 15 16  1  0
 16 17  1  0
 16 18  1  0
  6 19  1  0
 19 20  2  0
 20  3  1  0
 13  7  1  0
  1 21  1  0
  1 22  1  0
  1 23  1  0
  4 24  1  0
  5 25  1  0
  7 26  1  0
 11 27  1  0
 12 28  1  0
 12 29  1  0
 12 30  1  0
 14 31  1  0
 14 32  1  0
 14 33  1  0
 15 34  1  0
 15 35  1  0
 16 36  1  0
 17 37  1  0
 17 38  1  0
 17 39  1  0
 18 40  1  0
 18 41  1  0
 18 42  1  0
 19 43  1  0
 20 44  1  0
M  END
>  <energy_abs>  (238) 
46.87481736159663

>  <SMILES>  (238) 
COc1ccc(C2OC(=O)C(C)C2(C)CC(C)C)cc1

>  <cluster_no>  (238) 
238

>  <ccdc_id>  (238) 
33

>  <initial_conformation_id>  (238) 
26

>  <minimize_method>  (238) 
MMFF

$$$$
