
     RDKit          3D

 44 45  0  0  0  0  0  0  0  0999 V2000
    5.7367    0.4657   -1.2346 C   0  0  0  0  0  0  0  0  0  0  0  0
    4.8526    1.4200   -0.6603 O   0  0  0  0  0  0  0  0  0  0  0  0
    3.6702    0.9459   -0.1646 C   0  0  0  0  0  0  0  0  0  0  0  0
    2.8509    1.9117    0.4178 C   0  0  0  0  0  0  0  0  0  0  0  0
    1.6117    1.5630    0.9624 C   0  0  0  0  0  0  0  0  0  0  0  0
    1.1558    0.2361    0.9286 C   0  0  0  0  0  0  0  0  0  0  0  0
   -0.2013   -0.0994    1.5234 C   0  0  0  0  0  0  0  0  0  0  0  0
   -0.0860   -1.2870    2.3293 O   0  0  0  0  0  0  0  0  0  0  0  0
   -0.6755   -2.3438    1.7010 C   0  0  0  0  0  0  0  0  0  0  0  0
   -0.6801   -3.4812    2.1424 O   0  0  0  0  0  0  0  0  0  0  0  0
   -1.2641   -1.9041    0.3839 C   0  0  0  0  0  0  0  0  0  0  0  0
   -2.5392   -2.6642    0.0454 C   0  0  0  0  0  0  0  0  0  0  0  0
   -1.3985   -0.3782    0.5774 C   0  0  0  0  0  0  0  0  0  0  0  0
   -2.7026   -0.0337    1.3374 C   0  0  0  0  0  0  0  0  0  0  0  0
   -1.3611    0.3450   -0.7990 C   0  0  0  0  0  0  0  0  0  0  0  0
   -1.4898    1.8862   -0.7846 C   0  0  0  0  0  0  0  0  0  0  0  0
   -0.6190    2.4963   -1.8905 C   0  0  0  0  0  0  0  0  0  0  0  0
   -2.9349    2.3481   -1.0049 C   0  0  0  0  0  0  0  0  0  0  0  0
    1.9959   -0.7292    0.3534 C   0  0  0  0  0  0  0  0  0  0  0  0
    3.2388   -0.3780   -0.1912 C   0  0  0  0  0  0  0  0  0  0  0  0
    6.6314    0.9988   -1.5704 H   0  0  0  0  0  0  0  0  0  0  0  0
    5.2860   -0.0126   -2.1104 H   0  0  0  0  0  0  0  0  0  0  0  0
    6.0504   -0.2780   -0.4946 H   0  0  0  0  0  0  0  0  0  0  0  0
    3.1815    2.9472    0.4515 H   0  0  0  0  0  0  0  0  0  0  0  0
    1.0068    2.3462    1.4149 H   0  0  0  0  0  0  0  0  0  0  0  0
   -0.4618    0.7059    2.2222 H   0  0  0  0  0  0  0  0  0  0  0  0
   -0.5166   -2.1250   -0.3879 H   0  0  0  0  0  0  0  0  0  0  0  0
   -3.2561   -2.6606    0.8730 H   0  0  0  0  0  0  0  0  0  0  0  0
   -3.0254   -2.2501   -0.8428 H   0  0  0  0  0  0  0  0  0  0  0  0
   -2.3075   -3.7152   -0.1619 H   0  0  0  0  0  0  0  0  0  0  0  0
   -3.5869   -0.2053    0.7146 H   0  0  0  0  0  0  0  0  0  0  0  0
   -2.7130    1.0146    1.6540 H   0  0  0  0  0  0  0  0  0  0  0  0
   -2.8168   -0.6348    2.2467 H   0  0  0  0  0  0  0  0  0  0  0  0
   -2.1550   -0.0671   -1.4365 H   0  0  0  0  0  0  0  0  0  0  0  0
   -0.4281    0.0659   -1.3055 H   0  0  0  0  0  0  0  0  0  0  0  0
   -1.1435    2.2852    0.1742 H   0  0  0  0  0  0  0  0  0  0  0  0
   -0.9354    2.1504   -2.8806 H   0  0  0  0  0  0  0  0  0  0  0  0
    0.4330    2.2250   -1.7601 H   0  0  0  0  0  0  0  0  0  0  0  0
   -0.6824    3.5897   -1.8770 H   0  0  0  0  0  0  0  0  0  0  0  0
   -3.3219    1.9953   -1.9672 H   0  0  0  0  0  0  0  0  0  0  0  0
   -3.6064    1.9882   -0.2229 H   0  0  0  0  0  0  0  0  0  0  0  0
   -2.9932    3.4422   -1.0033 H   0  0  0  0  0  0  0  0  0  0  0  0
    1.7119   -1.7781    0.3313 H   0  0  0  0  0  0  0  0  0  0  0  0
    3.8457   -1.1680   -0.6211 H   0  0  0  0  0  0  0  0  0  0  0  0
  1  2  1  0
  2  3  1  0
  3  4  2  0
  4  5  1  0
  5  6  2  0
  6  7  1  0
  7  8  1  0
  8  9  1  0
  9 10  2  0
  9 11  1  0
 11 12  1  0
 11 13  1  0
 13 14  1  0
 13 15  1  0
 15 16  1  0
 16 17  1  0
 16 18  1  0
  6 19  1  0
 19 20  2  0
 20  3  1  0
 13  7  1  0
  1 21  1  0
  1 22  1  0
  1 23  1  0
  4 24  1  0
  5 25  1  0
  7 26  1  0
 11 27  1  0
 12 28  1  0
 12 29  1  0
 12 30  1  0
 14 31  1  0
 14 32  1  0
 14 33  1  0
 15 34  1  0
 15 35  1  0
 16 36  1  0
 17 37  1  0
 17 38  1  0
 17 39  1  0
 18 40  1  0
 18 41  1  0
 18 42  1  0
 19 43  1  0
 20 44  1  0
M  END
>  <energy_abs>  (239) 
44.82567906704949

>  <SMILES>  (239) 
COc1ccc(C2OC(=O)C(C)C2(C)CC(C)C)cc1

>  <cluster_no>  (239) 
239

>  <ccdc_id>  (239) 
33

>  <initial_conformation_id>  (239) 
25

>  <minimize_method>  (239) 
MMFF

$$$$
