#Put Keywords Here, check Charge and Multiplicity.

 

0  1
C           5.73670         0.46570        -1.23460
O           4.85260         1.42000        -0.66030
C           3.67020         0.94590        -0.16460
C           2.85090         1.91170         0.41780
C           1.61170         1.56300         0.96240
C           1.15580         0.23610         0.92860
C          -0.20130        -0.09940         1.52340
O          -0.08600        -1.28700         2.32930
C          -0.67550        -2.34380         1.70100
O          -0.68010        -3.48120         2.14240
C          -1.26410        -1.90410         0.38390
C          -2.53920        -2.66420         0.04540
C          -1.39850        -0.37820         0.57740
C          -2.70260        -0.03370         1.33740
C          -1.36110         0.34500        -0.79900
C          -1.48980         1.88620        -0.78460
C          -0.61900         2.49630        -1.89050
C          -2.93490         2.34810        -1.00490
C           1.99590        -0.72920         0.35340
C           3.23880        -0.37800        -0.19120
H           6.63140         0.99880        -1.57040
H           5.28600        -0.01260        -2.11040
H           6.05040        -0.27800        -0.49460
H           3.18150         2.94720         0.45150
H           1.00680         2.34620         1.41490
H          -0.46180         0.70590         2.22220
H          -0.51660        -2.12500        -0.38790
H          -3.25610        -2.66060         0.87300
H          -3.02540        -2.25010        -0.84280
H          -2.30750        -3.71520        -0.16190
H          -3.58690        -0.20530         0.71460
H          -2.71300         1.01460         1.65400
H          -2.81680        -0.63480         2.24670
H          -2.15500        -0.06710        -1.43650
H          -0.42810         0.06590        -1.30550
H          -1.14350         2.28520         0.17420
H          -0.93540         2.15040        -2.88060
H           0.43300         2.22500        -1.76010
H          -0.68240         3.58970        -1.87700
H          -3.32190         1.99530        -1.96720
H          -3.60640         1.98820        -0.22290
H          -2.99320         3.44220        -1.00330
H           1.71190        -1.77810         0.33130
H           3.84570        -1.16800        -0.62110

