
     RDKit          3D

 44 45  0  0  0  0  0  0  0  0999 V2000
    6.0065    1.4009    0.5860 C   0  0  0  0  0  0  0  0  0  0  0  0
    5.0399    0.8666    1.4814 O   0  0  0  0  0  0  0  0  0  0  0  0
    3.7276    0.9826    1.1161 C   0  0  0  0  0  0  0  0  0  0  0  0
    3.2497    1.5482   -0.0635 C   0  0  0  0  0  0  0  0  0  0  0  0
    1.8726    1.5996   -0.3117 C   0  0  0  0  0  0  0  0  0  0  0  0
    0.9459    1.0847    0.6111 C   0  0  0  0  0  0  0  0  0  0  0  0
   -0.5374    1.1426    0.2838 C   0  0  0  0  0  0  0  0  0  0  0  0
   -1.2912    1.3792    1.4807 O   0  0  0  0  0  0  0  0  0  0  0  0
   -1.9258    0.2389    1.8654 C   0  0  0  0  0  0  0  0  0  0  0  0
   -2.5666    0.1401    2.8997 O   0  0  0  0  0  0  0  0  0  0  0  0
   -1.6935   -0.8673    0.8624 C   0  0  0  0  0  0  0  0  0  0  0  0
   -2.9646   -1.6971    0.7148 C   0  0  0  0  0  0  0  0  0  0  0  0
   -1.2016   -0.1014   -0.3791 C   0  0  0  0  0  0  0  0  0  0  0  0
   -2.3784    0.4167   -1.2468 C   0  0  0  0  0  0  0  0  0  0  0  0
   -0.2066   -0.8903   -1.2828 C   0  0  0  0  0  0  0  0  0  0  0  0
   -0.7162   -2.1815   -1.9639 C   0  0  0  0  0  0  0  0  0  0  0  0
   -0.3496   -3.4298   -1.1544 C   0  0  0  0  0  0  0  0  0  0  0  0
   -0.1062   -2.3112   -3.3650 C   0  0  0  0  0  0  0  0  0  0  0  0
    1.4401    0.5240    1.7965 C   0  0  0  0  0  0  0  0  0  0  0  0
    2.8159    0.4739    2.0415 C   0  0  0  0  0  0  0  0  0  0  0  0
    5.8704    2.4796    0.4550 H   0  0  0  0  0  0  0  0  0  0  0  0
    5.9833    0.8792   -0.3764 H   0  0  0  0  0  0  0  0  0  0  0  0
    6.9951    1.2414    1.0271 H   0  0  0  0  0  0  0  0  0  0  0  0
    3.9186    1.9591   -0.8122 H   0  0  0  0  0  0  0  0  0  0  0  0
    1.5286    2.0473   -1.2426 H   0  0  0  0  0  0  0  0  0  0  0  0
   -0.6935    2.0296   -0.3441 H   0  0  0  0  0  0  0  0  0  0  0  0
   -0.8879   -1.4932    1.2645 H   0  0  0  0  0  0  0  0  0  0  0  0
   -3.1561   -2.2575    1.6373 H   0  0  0  0  0  0  0  0  0  0  0  0
   -2.8960   -2.4223   -0.0977 H   0  0  0  0  0  0  0  0  0  0  0  0
   -3.8466   -1.0703    0.5431 H   0  0  0  0  0  0  0  0  0  0  0  0
   -3.0615    1.0472   -0.6660 H   0  0  0  0  0  0  0  0  0  0  0  0
   -2.0064    1.0237   -2.0805 H   0  0  0  0  0  0  0  0  0  0  0  0
   -2.9729   -0.3937   -1.6771 H   0  0  0  0  0  0  0  0  0  0  0  0
    0.1348   -0.1940   -2.0614 H   0  0  0  0  0  0  0  0  0  0  0  0
    0.6899   -1.1526   -0.7079 H   0  0  0  0  0  0  0  0  0  0  0  0
   -1.8015   -2.1540   -2.0893 H   0  0  0  0  0  0  0  0  0  0  0  0
   -0.7483   -4.3301   -1.6344 H   0  0  0  0  0  0  0  0  0  0  0  0
    0.7370   -3.5473   -1.0763 H   0  0  0  0  0  0  0  0  0  0  0  0
   -0.7528   -3.3922   -0.1401 H   0  0  0  0  0  0  0  0  0  0  0  0
   -0.4517   -3.2265   -3.8576 H   0  0  0  0  0  0  0  0  0  0  0  0
    0.9880   -2.3406   -3.3222 H   0  0  0  0  0  0  0  0  0  0  0  0
   -0.3998   -1.4649   -3.9953 H   0  0  0  0  0  0  0  0  0  0  0  0
    0.7707    0.1270    2.5556 H   0  0  0  0  0  0  0  0  0  0  0  0
    3.1796    0.0375    2.9691 H   0  0  0  0  0  0  0  0  0  0  0  0
  1  2  1  0
  2  3  1  0
  3  4  2  0
  4  5  1  0
  5  6  2  0
  6  7  1  0
  7  8  1  0
  8  9  1  0
  9 10  2  0
  9 11  1  0
 11 12  1  0
 11 13  1  0
 13 14  1  0
 13 15  1  0
 15 16  1  0
 16 17  1  0
 16 18  1  0
  6 19  1  0
 19 20  2  0
 20  3  1  0
 13  7  1  0
  1 21  1  0
  1 22  1  0
  1 23  1  0
  4 24  1  0
  5 25  1  0
  7 26  1  0
 11 27  1  0
 12 28  1  0
 12 29  1  0
 12 30  1  0
 14 31  1  0
 14 32  1  0
 14 33  1  0
 15 34  1  0
 15 35  1  0
 16 36  1  0
 17 37  1  0
 17 38  1  0
 17 39  1  0
 18 40  1  0
 18 41  1  0
 18 42  1  0
 19 43  1  0
 20 44  1  0
M  END
>  <energy_abs>  (24) 
46.250343961860196

>  <SMILES>  (24) 
COc1ccc(C2OC(=O)C(C)C2(C)CC(C)C)cc1

>  <cluster_no>  (24) 
24

>  <ccdc_id>  (24) 
33

>  <initial_conformation_id>  (24) 
113

>  <minimize_method>  (24) 
MMFF

$$$$
