
     RDKit          3D

 44 45  0  0  0  0  0  0  0  0999 V2000
    6.2050    1.5324    1.1486 C   0  0  0  0  0  0  0  0  0  0  0  0
    5.3469    1.6140    0.0175 O   0  0  0  0  0  0  0  0  0  0  0  0
    4.1497    0.9591    0.1031 C   0  0  0  0  0  0  0  0  0  0  0  0
    3.3529    1.0464   -1.0389 C   0  0  0  0  0  0  0  0  0  0  0  0
    2.1028    0.4234   -1.0882 C   0  0  0  0  0  0  0  0  0  0  0  0
    1.6191   -0.2981    0.0121 C   0  0  0  0  0  0  0  0  0  0  0  0
    0.2555   -0.9589   -0.0535 C   0  0  0  0  0  0  0  0  0  0  0  0
    0.2082   -2.1002    0.8054 O   0  0  0  0  0  0  0  0  0  0  0  0
   -1.0887   -2.3619    1.1099 C   0  0  0  0  0  0  0  0  0  0  0  0
   -1.4561   -3.3766    1.6807 O   0  0  0  0  0  0  0  0  0  0  0  0
   -1.9867   -1.2365    0.6422 C   0  0  0  0  0  0  0  0  0  0  0  0
   -3.0337   -0.9775    1.7216 C   0  0  0  0  0  0  0  0  0  0  0  0
   -0.9913   -0.0971    0.3258 C   0  0  0  0  0  0  0  0  0  0  0  0
   -0.6958    0.7765    1.5644 C   0  0  0  0  0  0  0  0  0  0  0  0
   -1.3575    0.7815   -0.9125 C   0  0  0  0  0  0  0  0  0  0  0  0
   -2.6880    1.5505   -1.0682 C   0  0  0  0  0  0  0  0  0  0  0  0
   -3.8834    0.6605   -1.4041 C   0  0  0  0  0  0  0  0  0  0  0  0
   -3.0131    2.5298    0.0526 C   0  0  0  0  0  0  0  0  0  0  0  0
    2.4309   -0.3858    1.1535 C   0  0  0  0  0  0  0  0  0  0  0  0
    3.6838    0.2380    1.2003 C   0  0  0  0  0  0  0  0  0  0  0  0
    5.7430    1.9923    2.0284 H   0  0  0  0  0  0  0  0  0  0  0  0
    6.4959    0.4960    1.3500 H   0  0  0  0  0  0  0  0  0  0  0  0
    7.1152    2.0946    0.9187 H   0  0  0  0  0  0  0  0  0  0  0  0
    3.7117    1.6027   -1.9017 H   0  0  0  0  0  0  0  0  0  0  0  0
    1.5154    0.5063   -1.9999 H   0  0  0  0  0  0  0  0  0  0  0  0
    0.1475   -1.3676   -1.0690 H   0  0  0  0  0  0  0  0  0  0  0  0
   -2.4686   -1.5846   -0.2792 H   0  0  0  0  0  0  0  0  0  0  0  0
   -3.6185   -0.0781    1.5307 H   0  0  0  0  0  0  0  0  0  0  0  0
   -2.5831   -0.8864    2.7164 H   0  0  0  0  0  0  0  0  0  0  0  0
   -3.7355   -1.8180    1.7736 H   0  0  0  0  0  0  0  0  0  0  0  0
    0.0202    1.5724    1.3318 H   0  0  0  0  0  0  0  0  0  0  0  0
   -1.5904    1.2634    1.9565 H   0  0  0  0  0  0  0  0  0  0  0  0
   -0.2779    0.1830    2.3855 H   0  0  0  0  0  0  0  0  0  0  0  0
   -0.5641    1.5349   -1.0174 H   0  0  0  0  0  0  0  0  0  0  0  0
   -1.2662    0.1556   -1.8119 H   0  0  0  0  0  0  0  0  0  0  0  0
   -2.5398    2.1733   -1.9635 H   0  0  0  0  0  0  0  0  0  0  0  0
   -4.7315    1.2730   -1.7307 H   0  0  0  0  0  0  0  0  0  0  0  0
   -4.2240    0.0710   -0.5531 H   0  0  0  0  0  0  0  0  0  0  0  0
   -3.6424   -0.0271   -2.2216 H   0  0  0  0  0  0  0  0  0  0  0  0
   -2.1400    3.1380    0.3095 H   0  0  0  0  0  0  0  0  0  0  0  0
   -3.3704    2.0279    0.9531 H   0  0  0  0  0  0  0  0  0  0  0  0
   -3.8074    3.2155   -0.2638 H   0  0  0  0  0  0  0  0  0  0  0  0
    2.0959   -0.9472    2.0243 H   0  0  0  0  0  0  0  0  0  0  0  0
    4.2676    0.1363    2.1090 H   0  0  0  0  0  0  0  0  0  0  0  0
  1  2  1  0
  2  3  1  0
  3  4  2  0
  4  5  1  0
  5  6  2  0
  6  7  1  0
  7  8  1  0
  8  9  1  0
  9 10  2  0
  9 11  1  0
 11 12  1  0
 11 13  1  0
 13 14  1  0
 13 15  1  0
 15 16  1  0
 16 17  1  0
 16 18  1  0
  6 19  1  0
 19 20  2  0
 20  3  1  0
 13  7  1  0
  1 21  1  0
  1 22  1  0
  1 23  1  0
  4 24  1  0
  5 25  1  0
  7 26  1  0
 11 27  1  0
 12 28  1  0
 12 29  1  0
 12 30  1  0
 14 31  1  0
 14 32  1  0
 14 33  1  0
 15 34  1  0
 15 35  1  0
 16 36  1  0
 17 37  1  0
 17 38  1  0
 17 39  1  0
 18 40  1  0
 18 41  1  0
 18 42  1  0
 19 43  1  0
 20 44  1  0
M  END
>  <energy_abs>  (240) 
48.58171291908165

>  <SMILES>  (240) 
COc1ccc(C2OC(=O)C(C)C2(C)CC(C)C)cc1

>  <cluster_no>  (240) 
240

>  <ccdc_id>  (240) 
33

>  <initial_conformation_id>  (240) 
24

>  <minimize_method>  (240) 
MMFF

$$$$
