
     RDKit          3D

 44 45  0  0  0  0  0  0  0  0999 V2000
    5.4084    1.4031   -2.1137 C   0  0  0  0  0  0  0  0  0  0  0  0
    4.9262    1.4207   -0.7745 O   0  0  0  0  0  0  0  0  0  0  0  0
    3.7166    0.8220   -0.5563 C   0  0  0  0  0  0  0  0  0  0  0  0
    3.4228    0.5617    0.7811 C   0  0  0  0  0  0  0  0  0  0  0  0
    2.2195   -0.0501    1.1431 C   0  0  0  0  0  0  0  0  0  0  0  0
    1.2710   -0.3935    0.1706 C   0  0  0  0  0  0  0  0  0  0  0  0
   -0.0416   -1.0547    0.5298 C   0  0  0  0  0  0  0  0  0  0  0  0
    0.1736   -2.0133    1.5780 O   0  0  0  0  0  0  0  0  0  0  0  0
   -0.9925   -2.2079    2.2538 C   0  0  0  0  0  0  0  0  0  0  0  0
   -1.1449   -3.0406    3.1323 O   0  0  0  0  0  0  0  0  0  0  0  0
   -2.0592   -1.2715    1.7419 C   0  0  0  0  0  0  0  0  0  0  0  0
   -3.0294   -2.0761    0.8807 C   0  0  0  0  0  0  0  0  0  0  0  0
   -1.2154   -0.1770    1.0296 C   0  0  0  0  0  0  0  0  0  0  0  0
   -0.7875    0.8420    2.1099 C   0  0  0  0  0  0  0  0  0  0  0  0
   -2.0038    0.5121   -0.1221 C   0  0  0  0  0  0  0  0  0  0  0  0
   -1.4024    1.7960   -0.7407 C   0  0  0  0  0  0  0  0  0  0  0  0
   -1.6720    1.8289   -2.2491 C   0  0  0  0  0  0  0  0  0  0  0  0
   -1.9907    3.0645   -0.1138 C   0  0  0  0  0  0  0  0  0  0  0  0
    1.5761   -0.1261   -1.1736 C   0  0  0  0  0  0  0  0  0  0  0  0
    2.7859    0.4793   -1.5345 C   0  0  0  0  0  0  0  0  0  0  0  0
    5.4482    0.3816   -2.5078 H   0  0  0  0  0  0  0  0  0  0  0  0
    6.4299    1.7959   -2.1068 H   0  0  0  0  0  0  0  0  0  0  0  0
    4.8066    2.0516   -2.7589 H   0  0  0  0  0  0  0  0  0  0  0  0
    4.1433    0.8240    1.5503 H   0  0  0  0  0  0  0  0  0  0  0  0
    2.0371   -0.2646    2.1939 H   0  0  0  0  0  0  0  0  0  0  0  0
   -0.3546   -1.6466   -0.3416 H   0  0  0  0  0  0  0  0  0  0  0  0
   -2.5989   -0.8479    2.5970 H   0  0  0  0  0  0  0  0  0  0  0  0
   -2.5370   -2.5220    0.0106 H   0  0  0  0  0  0  0  0  0  0  0  0
   -3.4645   -2.9000    1.4592 H   0  0  0  0  0  0  0  0  0  0  0  0
   -3.8560   -1.4533    0.5282 H   0  0  0  0  0  0  0  0  0  0  0  0
   -0.1033    1.6001    1.7183 H   0  0  0  0  0  0  0  0  0  0  0  0
   -0.2835    0.3591    2.9528 H   0  0  0  0  0  0  0  0  0  0  0  0
   -1.6625    1.3599    2.5171 H   0  0  0  0  0  0  0  0  0  0  0  0
   -2.1466   -0.2277   -0.9207 H   0  0  0  0  0  0  0  0  0  0  0  0
   -3.0130    0.7494    0.2417 H   0  0  0  0  0  0  0  0  0  0  0  0
   -0.3196    1.8194   -0.6013 H   0  0  0  0  0  0  0  0  0  0  0  0
   -1.2158    0.9665   -2.7456 H   0  0  0  0  0  0  0  0  0  0  0  0
   -2.7460    1.8136   -2.4622 H   0  0  0  0  0  0  0  0  0  0  0  0
   -1.2489    2.7322   -2.7013 H   0  0  0  0  0  0  0  0  0  0  0  0
   -3.0745    3.1179   -0.2672 H   0  0  0  0  0  0  0  0  0  0  0  0
   -1.8030    3.1141    0.9614 H   0  0  0  0  0  0  0  0  0  0  0  0
   -1.5453    3.9585   -0.5635 H   0  0  0  0  0  0  0  0  0  0  0  0
    0.8687   -0.3839   -1.9603 H   0  0  0  0  0  0  0  0  0  0  0  0
    2.9664    0.6759   -2.5869 H   0  0  0  0  0  0  0  0  0  0  0  0
  1  2  1  0
  2  3  1  0
  3  4  2  0
  4  5  1  0
  5  6  2  0
  6  7  1  0
  7  8  1  0
  8  9  1  0
  9 10  2  0
  9 11  1  0
 11 12  1  0
 11 13  1  0
 13 14  1  0
 13 15  1  0
 15 16  1  0
 16 17  1  0
 16 18  1  0
  6 19  1  0
 19 20  2  0
 20  3  1  0
 13  7  1  0
  1 21  1  0
  1 22  1  0
  1 23  1  0
  4 24  1  0
  5 25  1  0
  7 26  1  0
 11 27  1  0
 12 28  1  0
 12 29  1  0
 12 30  1  0
 14 31  1  0
 14 32  1  0
 14 33  1  0
 15 34  1  0
 15 35  1  0
 16 36  1  0
 17 37  1  0
 17 38  1  0
 17 39  1  0
 18 40  1  0
 18 41  1  0
 18 42  1  0
 19 43  1  0
 20 44  1  0
M  END
>  <energy_abs>  (242) 
46.125028690108884

>  <SMILES>  (242) 
COc1ccc(C2OC(=O)C(C)C2(C)CC(C)C)cc1

>  <cluster_no>  (242) 
242

>  <ccdc_id>  (242) 
33

>  <initial_conformation_id>  (242) 
18

>  <minimize_method>  (242) 
MMFF

$$$$
