%NProcShared=1
%Mem=10GB

#p B3LYP/6-31G* opt freq

test

0  1
C           5.65640         1.82610        -1.34490
O           5.05110         1.47880        -0.10620
C           3.87340         0.78710        -0.16570
C           3.19590         0.41590        -1.32460
C           1.99100        -0.29240        -1.23910
C           1.43760        -0.64120         0.00500
C           0.11520        -1.38930         0.04470
O           0.11130        -2.30840         1.14660
C          -0.69620        -1.84550         2.13890
O          -0.81030        -2.39120         3.22480
C          -1.38520        -0.56910         1.71670
C          -2.80920        -0.54920         2.26080
C          -1.21270        -0.57740         0.18570
C          -2.30690        -1.40900        -0.52600
C          -1.09800         0.84570        -0.44000
C          -2.20880         1.89740        -0.21380
C          -1.69350         3.26740        -0.68650
C          -3.51860         1.59960        -0.94080
C           2.13250        -0.26670         1.16290
C           3.33540         0.44070         1.07410
H           5.91200         0.93270        -1.92430
H           5.01560         2.50180        -1.92120
H           6.58730         2.35760        -1.12480
H           3.57500         0.66000        -2.31130
H           1.48340        -0.56840        -2.16180
H           0.07700        -2.01220        -0.85890
H          -0.81670         0.26080         2.15490
H          -3.34820        -1.47570         2.03400
H          -2.79270        -0.45910         3.35320
H          -3.38910         0.29050         1.87440
H          -2.16340        -1.39010        -1.61250
H          -3.31630        -1.05510        -0.31960
H          -2.27980        -2.46010        -0.21460
H          -0.18680         1.30800        -0.04060
H          -0.92940         0.74080        -1.52070
H          -2.40890         1.99320         0.85820
H          -0.78020         3.54860        -0.15120
H          -2.43640         4.05030        -0.49950
H          -1.47070         3.25890        -1.75910
H          -4.09750         0.83160        -0.42570
H          -4.15990         2.48760        -0.97570
H          -3.34090         1.27530        -1.97120
H           1.76210        -0.52450         2.15200
H           3.86160         0.71970         1.98440

