
     RDKit          3D

 44 45  0  0  0  0  0  0  0  0999 V2000
    5.6564    1.8261   -1.3449 C   0  0  0  0  0  0  0  0  0  0  0  0
    5.0511    1.4788   -0.1062 O   0  0  0  0  0  0  0  0  0  0  0  0
    3.8734    0.7871   -0.1657 C   0  0  0  0  0  0  0  0  0  0  0  0
    3.1959    0.4159   -1.3246 C   0  0  0  0  0  0  0  0  0  0  0  0
    1.9910   -0.2924   -1.2391 C   0  0  0  0  0  0  0  0  0  0  0  0
    1.4376   -0.6412    0.0050 C   0  0  0  0  0  0  0  0  0  0  0  0
    0.1152   -1.3893    0.0447 C   0  0  0  0  0  0  0  0  0  0  0  0
    0.1113   -2.3084    1.1466 O   0  0  0  0  0  0  0  0  0  0  0  0
   -0.6962   -1.8455    2.1389 C   0  0  0  0  0  0  0  0  0  0  0  0
   -0.8103   -2.3912    3.2248 O   0  0  0  0  0  0  0  0  0  0  0  0
   -1.3852   -0.5691    1.7167 C   0  0  0  0  0  0  0  0  0  0  0  0
   -2.8092   -0.5492    2.2608 C   0  0  0  0  0  0  0  0  0  0  0  0
   -1.2127   -0.5774    0.1857 C   0  0  0  0  0  0  0  0  0  0  0  0
   -2.3069   -1.4090   -0.5260 C   0  0  0  0  0  0  0  0  0  0  0  0
   -1.0980    0.8457   -0.4400 C   0  0  0  0  0  0  0  0  0  0  0  0
   -2.2088    1.8974   -0.2138 C   0  0  0  0  0  0  0  0  0  0  0  0
   -1.6935    3.2674   -0.6865 C   0  0  0  0  0  0  0  0  0  0  0  0
   -3.5186    1.5996   -0.9408 C   0  0  0  0  0  0  0  0  0  0  0  0
    2.1325   -0.2667    1.1629 C   0  0  0  0  0  0  0  0  0  0  0  0
    3.3354    0.4407    1.0741 C   0  0  0  0  0  0  0  0  0  0  0  0
    5.9120    0.9327   -1.9243 H   0  0  0  0  0  0  0  0  0  0  0  0
    5.0156    2.5018   -1.9212 H   0  0  0  0  0  0  0  0  0  0  0  0
    6.5873    2.3576   -1.1248 H   0  0  0  0  0  0  0  0  0  0  0  0
    3.5750    0.6600   -2.3113 H   0  0  0  0  0  0  0  0  0  0  0  0
    1.4834   -0.5684   -2.1618 H   0  0  0  0  0  0  0  0  0  0  0  0
    0.0770   -2.0122   -0.8589 H   0  0  0  0  0  0  0  0  0  0  0  0
   -0.8167    0.2608    2.1549 H   0  0  0  0  0  0  0  0  0  0  0  0
   -3.3482   -1.4757    2.0340 H   0  0  0  0  0  0  0  0  0  0  0  0
   -2.7927   -0.4591    3.3532 H   0  0  0  0  0  0  0  0  0  0  0  0
   -3.3891    0.2905    1.8744 H   0  0  0  0  0  0  0  0  0  0  0  0
   -2.1634   -1.3901   -1.6125 H   0  0  0  0  0  0  0  0  0  0  0  0
   -3.3163   -1.0551   -0.3196 H   0  0  0  0  0  0  0  0  0  0  0  0
   -2.2798   -2.4601   -0.2146 H   0  0  0  0  0  0  0  0  0  0  0  0
   -0.1868    1.3080   -0.0406 H   0  0  0  0  0  0  0  0  0  0  0  0
   -0.9294    0.7408   -1.5207 H   0  0  0  0  0  0  0  0  0  0  0  0
   -2.4089    1.9932    0.8582 H   0  0  0  0  0  0  0  0  0  0  0  0
   -0.7802    3.5486   -0.1512 H   0  0  0  0  0  0  0  0  0  0  0  0
   -2.4364    4.0503   -0.4995 H   0  0  0  0  0  0  0  0  0  0  0  0
   -1.4707    3.2589   -1.7591 H   0  0  0  0  0  0  0  0  0  0  0  0
   -4.0975    0.8316   -0.4257 H   0  0  0  0  0  0  0  0  0  0  0  0
   -4.1599    2.4876   -0.9757 H   0  0  0  0  0  0  0  0  0  0  0  0
   -3.3409    1.2753   -1.9712 H   0  0  0  0  0  0  0  0  0  0  0  0
    1.7621   -0.5245    2.1520 H   0  0  0  0  0  0  0  0  0  0  0  0
    3.8616    0.7197    1.9844 H   0  0  0  0  0  0  0  0  0  0  0  0
  1  2  1  0
  2  3  1  0
  3  4  2  0
  4  5  1  0
  5  6  2  0
  6  7  1  0
  7  8  1  0
  8  9  1  0
  9 10  2  0
  9 11  1  0
 11 12  1  0
 11 13  1  0
 13 14  1  0
 13 15  1  0
 15 16  1  0
 16 17  1  0
 16 18  1  0
  6 19  1  0
 19 20  2  0
 20  3  1  0
 13  7  1  0
  1 21  1  0
  1 22  1  0
  1 23  1  0
  4 24  1  0
  5 25  1  0
  7 26  1  0
 11 27  1  0
 12 28  1  0
 12 29  1  0
 12 30  1  0
 14 31  1  0
 14 32  1  0
 14 33  1  0
 15 34  1  0
 15 35  1  0
 16 36  1  0
 17 37  1  0
 17 38  1  0
 17 39  1  0
 18 40  1  0
 18 41  1  0
 18 42  1  0
 19 43  1  0
 20 44  1  0
M  END
>  <energy_abs>  (244) 
47.39953087880291

>  <SMILES>  (244) 
COc1ccc(C2OC(=O)C(C)C2(C)CC(C)C)cc1

>  <cluster_no>  (244) 
244

>  <ccdc_id>  (244) 
33

>  <initial_conformation_id>  (244) 
15

>  <minimize_method>  (244) 
MMFF

$$$$
