
     RDKit          3D

 44 45  0  0  0  0  0  0  0  0999 V2000
    5.4485    1.0124   -2.3635 C   0  0  0  0  0  0  0  0  0  0  0  0
    5.0166    1.4275   -1.0737 O   0  0  0  0  0  0  0  0  0  0  0  0
    3.9033    0.8146   -0.5693 C   0  0  0  0  0  0  0  0  0  0  0  0
    3.5293    1.2399    0.7059 C   0  0  0  0  0  0  0  0  0  0  0  0
    2.4089    0.6971    1.3411 C   0  0  0  0  0  0  0  0  0  0  0  0
    1.6329   -0.2834    0.7077 C   0  0  0  0  0  0  0  0  0  0  0  0
    0.4152   -0.8530    1.4062 C   0  0  0  0  0  0  0  0  0  0  0  0
    0.0734   -2.1425    0.8771 O   0  0  0  0  0  0  0  0  0  0  0  0
   -1.2431   -2.3857    1.1331 C   0  0  0  0  0  0  0  0  0  0  0  0
   -1.8022   -3.4401    0.8827 O   0  0  0  0  0  0  0  0  0  0  0  0
   -1.8661   -1.1761    1.7891 C   0  0  0  0  0  0  0  0  0  0  0  0
   -3.3423   -1.0498    1.4606 C   0  0  0  0  0  0  0  0  0  0  0  0
   -0.9100   -0.0389    1.3485 C   0  0  0  0  0  0  0  0  0  0  0  0
   -0.8980    1.0876    2.3887 C   0  0  0  0  0  0  0  0  0  0  0  0
   -1.1958    0.4915   -0.1002 C   0  0  0  0  0  0  0  0  0  0  0  0
   -2.3377    1.5216   -0.2947 C   0  0  0  0  0  0  0  0  0  0  0  0
   -1.8291    2.9668   -0.2320 C   0  0  0  0  0  0  0  0  0  0  0  0
   -3.0089    1.3045   -1.6569 C   0  0  0  0  0  0  0  0  0  0  0  0
    2.0210   -0.7097   -0.5720 C   0  0  0  0  0  0  0  0  0  0  0  0
    3.1445   -0.1651   -1.2061 C   0  0  0  0  0  0  0  0  0  0  0  0
    6.3450    1.5866   -2.6165 H   0  0  0  0  0  0  0  0  0  0  0  0
    5.7207   -0.0482   -2.3667 H   0  0  0  0  0  0  0  0  0  0  0  0
    4.6894    1.2290   -3.1224 H   0  0  0  0  0  0  0  0  0  0  0  0
    4.1195    2.0004    1.2119 H   0  0  0  0  0  0  0  0  0  0  0  0
    2.1557    1.0474    2.3391 H   0  0  0  0  0  0  0  0  0  0  0  0
    0.7092   -1.0366    2.4506 H   0  0  0  0  0  0  0  0  0  0  0  0
   -1.7727   -1.3399    2.8722 H   0  0  0  0  0  0  0  0  0  0  0  0
   -3.7742   -0.1551    1.9175 H   0  0  0  0  0  0  0  0  0  0  0  0
   -3.8923   -1.9120    1.8555 H   0  0  0  0  0  0  0  0  0  0  0  0
   -3.5273   -1.0336    0.3829 H   0  0  0  0  0  0  0  0  0  0  0  0
   -1.8867    1.5433    2.5014 H   0  0  0  0  0  0  0  0  0  0  0  0
   -0.6073    0.7144    3.3776 H   0  0  0  0  0  0  0  0  0  0  0  0
   -0.1864    1.8733    2.1192 H   0  0  0  0  0  0  0  0  0  0  0  0
   -0.2882    0.9581   -0.5000 H   0  0  0  0  0  0  0  0  0  0  0  0
   -1.3784   -0.3764   -0.7478 H   0  0  0  0  0  0  0  0  0  0  0  0
   -3.1056    1.4022    0.4730 H   0  0  0  0  0  0  0  0  0  0  0  0
   -1.0712    3.1560   -1.0001 H   0  0  0  0  0  0  0  0  0  0  0  0
   -1.3901    3.2043    0.7391 H   0  0  0  0  0  0  0  0  0  0  0  0
   -2.6520    3.6715   -0.3957 H   0  0  0  0  0  0  0  0  0  0  0  0
   -2.2918    1.4236   -2.4765 H   0  0  0  0  0  0  0  0  0  0  0  0
   -3.4389    0.2999   -1.7257 H   0  0  0  0  0  0  0  0  0  0  0  0
   -3.8216    2.0226   -1.8101 H   0  0  0  0  0  0  0  0  0  0  0  0
    1.4485   -1.4747   -1.0943 H   0  0  0  0  0  0  0  0  0  0  0  0
    3.3962   -0.5318   -2.1956 H   0  0  0  0  0  0  0  0  0  0  0  0
  1  2  1  0
  2  3  1  0
  3  4  2  0
  4  5  1  0
  5  6  2  0
  6  7  1  0
  7  8  1  0
  8  9  1  0
  9 10  2  0
  9 11  1  0
 11 12  1  0
 11 13  1  0
 13 14  1  0
 13 15  1  0
 15 16  1  0
 16 17  1  0
 16 18  1  0
  6 19  1  0
 19 20  2  0
 20  3  1  0
 13  7  1  0
  1 21  1  0
  1 22  1  0
  1 23  1  0
  4 24  1  0
  5 25  1  0
  7 26  1  0
 11 27  1  0
 12 28  1  0
 12 29  1  0
 12 30  1  0
 14 31  1  0
 14 32  1  0
 14 33  1  0
 15 34  1  0
 15 35  1  0
 16 36  1  0
 17 37  1  0
 17 38  1  0
 17 39  1  0
 18 40  1  0
 18 41  1  0
 18 42  1  0
 19 43  1  0
 20 44  1  0
M  END
>  <energy_abs>  (245) 
45.953867441204466

>  <SMILES>  (245) 
COc1ccc(C2OC(=O)C(C)C2(C)CC(C)C)cc1

>  <cluster_no>  (245) 
245

>  <ccdc_id>  (245) 
33

>  <initial_conformation_id>  (245) 
13

>  <minimize_method>  (245) 
MMFF

$$$$
