
     RDKit          3D

 44 45  0  0  0  0  0  0  0  0999 V2000
    5.3101    1.8492   -1.5417 C   0  0  0  0  0  0  0  0  0  0  0  0
    4.8846    1.2484   -0.3254 O   0  0  0  0  0  0  0  0  0  0  0  0
    3.6429    0.6773   -0.3193 C   0  0  0  0  0  0  0  0  0  0  0  0
    2.7541    0.6302   -1.3893 C   0  0  0  0  0  0  0  0  0  0  0  0
    1.5053    0.0124   -1.2412 C   0  0  0  0  0  0  0  0  0  0  0  0
    1.1099   -0.5593   -0.0206 C   0  0  0  0  0  0  0  0  0  0  0  0
   -0.2537   -1.2194    0.0900 C   0  0  0  0  0  0  0  0  0  0  0  0
   -0.1582   -2.3719    0.9446 O   0  0  0  0  0  0  0  0  0  0  0  0
   -0.7738   -2.1392    2.1348 C   0  0  0  0  0  0  0  0  0  0  0  0
   -0.7336   -2.9104    3.0806 O   0  0  0  0  0  0  0  0  0  0  0  0
   -1.4914   -0.8143    2.1262 C   0  0  0  0  0  0  0  0  0  0  0  0
   -0.8498    0.1402    3.1260 C   0  0  0  0  0  0  0  0  0  0  0  0
   -1.4685   -0.4182    0.6295 C   0  0  0  0  0  0  0  0  0  0  0  0
   -2.7481   -1.0251   -0.0092 C   0  0  0  0  0  0  0  0  0  0  0  0
   -1.4373    1.1211    0.4089 C   0  0  0  0  0  0  0  0  0  0  0  0
   -1.6082    1.6413   -1.0390 C   0  0  0  0  0  0  0  0  0  0  0  0
   -0.7612    2.9041   -1.2469 C   0  0  0  0  0  0  0  0  0  0  0  0
   -3.0657    1.9935   -1.3623 C   0  0  0  0  0  0  0  0  0  0  0  0
    2.0285   -0.5296    1.0370 C   0  0  0  0  0  0  0  0  0  0  0  0
    3.2745    0.0892    0.8898 C   0  0  0  0  0  0  0  0  0  0  0  0
    5.3756    1.1090   -2.3460 H   0  0  0  0  0  0  0  0  0  0  0  0
    4.6549    2.6809   -1.8215 H   0  0  0  0  0  0  0  0  0  0  0  0
    6.3133    2.2555   -1.3810 H   0  0  0  0  0  0  0  0  0  0  0  0
    2.9990    1.0591   -2.3551 H   0  0  0  0  0  0  0  0  0  0  0  0
    0.8436   -0.0218   -2.1043 H   0  0  0  0  0  0  0  0  0  0  0  0
   -0.4894   -1.6175   -0.9058 H   0  0  0  0  0  0  0  0  0  0  0  0
   -2.5234   -0.9982    2.4514 H   0  0  0  0  0  0  0  0  0  0  0  0
    0.1694    0.4177    2.8512 H   0  0  0  0  0  0  0  0  0  0  0  0
   -1.4366    1.0593    3.2206 H   0  0  0  0  0  0  0  0  0  0  0  0
   -0.8004   -0.3179    4.1203 H   0  0  0  0  0  0  0  0  0  0  0  0
   -2.7369   -0.9347   -1.1000 H   0  0  0  0  0  0  0  0  0  0  0  0
   -3.6483   -0.5300    0.3715 H   0  0  0  0  0  0  0  0  0  0  0  0
   -2.8476   -2.0940    0.2148 H   0  0  0  0  0  0  0  0  0  0  0  0
   -2.2213    1.5768    1.0292 H   0  0  0  0  0  0  0  0  0  0  0  0
   -0.4929    1.5066    0.8125 H   0  0  0  0  0  0  0  0  0  0  0  0
   -1.2696    0.8854   -1.7541 H   0  0  0  0  0  0  0  0  0  0  0  0
   -1.0768    3.7083   -0.5732 H   0  0  0  0  0  0  0  0  0  0  0  0
    0.2985    2.7070   -1.0597 H   0  0  0  0  0  0  0  0  0  0  0  0
   -0.8523    3.2686   -2.2758 H   0  0  0  0  0  0  0  0  0  0  0  0
   -3.4460    2.7676   -0.6866 H   0  0  0  0  0  0  0  0  0  0  0  0
   -3.7279    1.1292   -1.2851 H   0  0  0  0  0  0  0  0  0  0  0  0
   -3.1507    2.3744   -2.3861 H   0  0  0  0  0  0  0  0  0  0  0  0
    1.8059   -1.0028    1.9902 H   0  0  0  0  0  0  0  0  0  0  0  0
    3.9688    0.1015    1.7269 H   0  0  0  0  0  0  0  0  0  0  0  0
  1  2  1  0
  2  3  1  0
  3  4  2  0
  4  5  1  0
  5  6  2  0
  6  7  1  0
  7  8  1  0
  8  9  1  0
  9 10  2  0
  9 11  1  0
 11 12  1  0
 11 13  1  0
 13 14  1  0
 13 15  1  0
 15 16  1  0
 16 17  1  0
 16 18  1  0
  6 19  1  0
 19 20  2  0
 20  3  1  0
 13  7  1  0
  1 21  1  0
  1 22  1  0
  1 23  1  0
  4 24  1  0
  5 25  1  0
  7 26  1  0
 11 27  1  0
 12 28  1  0
 12 29  1  0
 12 30  1  0
 14 31  1  0
 14 32  1  0
 14 33  1  0
 15 34  1  0
 15 35  1  0
 16 36  1  0
 17 37  1  0
 17 38  1  0
 17 39  1  0
 18 40  1  0
 18 41  1  0
 18 42  1  0
 19 43  1  0
 20 44  1  0
M  END
>  <energy_abs>  (247) 
47.95074576592611

>  <SMILES>  (247) 
COc1ccc(C2OC(=O)C(C)C2(C)CC(C)C)cc1

>  <cluster_no>  (247) 
247

>  <ccdc_id>  (247) 
33

>  <initial_conformation_id>  (247) 
9

>  <minimize_method>  (247) 
MMFF

$$$$
