
     RDKit          3D

 44 45  0  0  0  0  0  0  0  0999 V2000
    6.1522    0.7879   -1.7079 C   0  0  0  0  0  0  0  0  0  0  0  0
    5.4585   -0.3180   -1.1447 O   0  0  0  0  0  0  0  0  0  0  0  0
    4.2308   -0.0653   -0.5990 C   0  0  0  0  0  0  0  0  0  0  0  0
    3.6026   -1.1751   -0.0333 C   0  0  0  0  0  0  0  0  0  0  0  0
    2.3410   -1.0619    0.5593 C   0  0  0  0  0  0  0  0  0  0  0  0
    1.6757    0.1707    0.5929 C   0  0  0  0  0  0  0  0  0  0  0  0
    0.2968    0.3476    1.2096 C   0  0  0  0  0  0  0  0  0  0  0  0
    0.0930   -0.5984    2.2728 O   0  0  0  0  0  0  0  0  0  0  0  0
   -0.7515   -1.5863    1.8596 C   0  0  0  0  0  0  0  0  0  0  0  0
   -1.0658   -2.5428    2.5484 O   0  0  0  0  0  0  0  0  0  0  0  0
   -1.1815   -1.3351    0.4356 C   0  0  0  0  0  0  0  0  0  0  0  0
   -2.5723   -1.8768    0.1580 C   0  0  0  0  0  0  0  0  0  0  0  0
   -0.9510    0.1841    0.2883 C   0  0  0  0  0  0  0  0  0  0  0  0
   -0.6885    0.5598   -1.1751 C   0  0  0  0  0  0  0  0  0  0  0  0
   -2.1038    1.0584    0.9098 C   0  0  0  0  0  0  0  0  0  0  0  0
   -3.3818    1.3110    0.0718 C   0  0  0  0  0  0  0  0  0  0  0  0
   -4.6041    1.3941    0.9954 C   0  0  0  0  0  0  0  0  0  0  0  0
   -3.2959    2.6134   -0.7327 C   0  0  0  0  0  0  0  0  0  0  0  0
    2.3213    1.2841    0.0280 C   0  0  0  0  0  0  0  0  0  0  0  0
    3.5848    1.1680   -0.5644 C   0  0  0  0  0  0  0  0  0  0  0  0
    6.3618    1.5504   -0.9503 H   0  0  0  0  0  0  0  0  0  0  0  0
    7.1117    0.4229   -2.0868 H   0  0  0  0  0  0  0  0  0  0  0  0
    5.5997    1.2110   -2.5532 H   0  0  0  0  0  0  0  0  0  0  0  0
    4.1034   -2.1406   -0.0473 H   0  0  0  0  0  0  0  0  0  0  0  0
    1.9013   -1.9531    1.0009 H   0  0  0  0  0  0  0  0  0  0  0  0
    0.2941    1.3344    1.6895 H   0  0  0  0  0  0  0  0  0  0  0  0
   -0.4733   -1.8843   -0.1992 H   0  0  0  0  0  0  0  0  0  0  0  0
   -3.3157   -1.4909    0.8613 H   0  0  0  0  0  0  0  0  0  0  0  0
   -2.5813   -2.9677    0.2660 H   0  0  0  0  0  0  0  0  0  0  0  0
   -2.8885   -1.6501   -0.8641 H   0  0  0  0  0  0  0  0  0  0  0  0
   -1.5687    0.3845   -1.8013 H   0  0  0  0  0  0  0  0  0  0  0  0
   -0.4041    1.6128   -1.2674 H   0  0  0  0  0  0  0  0  0  0  0  0
    0.1149   -0.0411   -1.6150 H   0  0  0  0  0  0  0  0  0  0  0  0
   -1.6901    2.0420    1.1730 H   0  0  0  0  0  0  0  0  0  0  0  0
   -2.3888    0.6079    1.8701 H   0  0  0  0  0  0  0  0  0  0  0  0
   -3.5565    0.4901   -0.6278 H   0  0  0  0  0  0  0  0  0  0  0  0
   -4.7394    0.4596    1.5499 H   0  0  0  0  0  0  0  0  0  0  0  0
   -5.5179    1.5704    0.4178 H   0  0  0  0  0  0  0  0  0  0  0  0
   -4.4991    2.2076    1.7215 H   0  0  0  0  0  0  0  0  0  0  0  0
   -3.1590    3.4788   -0.0750 H   0  0  0  0  0  0  0  0  0  0  0  0
   -4.2163    2.7730   -1.3053 H   0  0  0  0  0  0  0  0  0  0  0  0
   -2.4696    2.6010   -1.4464 H   0  0  0  0  0  0  0  0  0  0  0  0
    1.8417    2.2614    0.0427 H   0  0  0  0  0  0  0  0  0  0  0  0
    4.0340    2.0605   -0.9869 H   0  0  0  0  0  0  0  0  0  0  0  0
  1  2  1  0
  2  3  1  0
  3  4  2  0
  4  5  1  0
  5  6  2  0
  6  7  1  0
  7  8  1  0
  8  9  1  0
  9 10  2  0
  9 11  1  0
 11 12  1  0
 11 13  1  0
 13 14  1  0
 13 15  1  0
 15 16  1  0
 16 17  1  0
 16 18  1  0
  6 19  1  0
 19 20  2  0
 20  3  1  0
 13  7  1  0
  1 21  1  0
  1 22  1  0
  1 23  1  0
  4 24  1  0
  5 25  1  0
  7 26  1  0
 11 27  1  0
 12 28  1  0
 12 29  1  0
 12 30  1  0
 14 31  1  0
 14 32  1  0
 14 33  1  0
 15 34  1  0
 15 35  1  0
 16 36  1  0
 17 37  1  0
 17 38  1  0
 17 39  1  0
 18 40  1  0
 18 41  1  0
 18 42  1  0
 19 43  1  0
 20 44  1  0
M  END
>  <energy_abs>  (248) 
47.53869397968148

>  <SMILES>  (248) 
COc1ccc(C2OC(=O)C(C)C2(C)CC(C)C)cc1

>  <cluster_no>  (248) 
248

>  <ccdc_id>  (248) 
33

>  <initial_conformation_id>  (248) 
7

>  <minimize_method>  (248) 
MMFF

$$$$
