#Put Keywords Here, check Charge and Multiplicity.

 

0  1
C           6.06910         1.64010         0.28800
O           5.00870         2.00660         1.16130
C           3.75370         1.58460         0.82170
C           3.41740         0.81530        -0.28970
C           2.08420         0.44920        -0.51930
C           1.06120         0.84180         0.35640
C          -0.37590         0.42310         0.10060
O          -1.28100         1.29790         0.80020
C          -2.41590         0.62190         1.13210
O          -3.37460         1.13160         1.68790
C          -2.31250        -0.81100         0.67530
C          -3.05260        -1.76610         1.60110
C          -0.78530        -0.99900         0.54760
C          -0.17840        -1.35050         1.93780
C          -0.36790        -2.14260        -0.42330
C          -0.49620        -1.98140        -1.95820
C          -1.92640        -1.85990        -2.47640
C           0.17360        -3.18660        -2.63690
C           1.41450         1.62030         1.46920
C           2.74490         1.98420         1.69710
H           6.99570         2.05750         0.69350
H           6.18550         0.55210         0.24370
H           5.92240         2.06360        -0.71110
H           4.16610         0.48280        -1.00100
H           1.86270        -0.14610        -1.40020
H          -0.58770         0.59080        -0.96230
H          -2.80340        -0.83950        -0.29710
H          -2.86340        -2.80870         1.32910
H          -4.13320        -1.59600         1.53170
H          -2.78290        -1.61890         2.65200
H          -0.51730        -2.33410         2.28230
H          -0.44980        -0.61620         2.70400
H           0.91550        -1.39990         1.89930
H           0.69280        -2.35710        -0.22760
H          -0.90250        -3.05630        -0.12840
H           0.05390        -1.09420        -2.28460
H          -1.96690        -2.01210        -3.56100
H          -2.58710        -2.59810        -2.01080
H          -2.32460        -0.85790        -2.29680
H          -0.33490        -4.12140        -2.37710
H           1.22260        -3.27310        -2.33380
H           0.15510        -3.08170        -3.72710
H           0.65790         1.95470         2.17680
H           2.99410         2.58790         2.56660

