%NProcShared=1
%Mem=10GB

#p B3LYP/6-31G* opt freq

test

0  1
C           5.32670         1.06790        -2.58770
O           5.00440         1.28880        -1.22080
C           3.85740         0.71050        -0.75480
C           2.99490        -0.10740        -1.47860
C           1.84430        -0.63980        -0.87580
C           1.51520        -0.35330         0.45490
C           0.30840        -0.94240         1.16570
O          -0.10550        -0.08930         2.25260
C          -1.38740        -0.38540         2.60780
O          -1.96910         0.11350         3.55610
C          -1.93480        -1.43240         1.67730
C          -3.43700        -1.33760         1.46210
C          -1.01680        -1.27940         0.43900
C          -0.93720        -2.65590        -0.26380
C          -1.53500        -0.23950        -0.60980
C          -1.85190         1.22410        -0.20960
C          -2.86680         1.80430        -1.20850
C          -0.62940         2.14090        -0.18940
C           2.41660         0.45050         1.17730
C           3.56340         0.98110         0.57860
H           5.50920         0.00600        -2.78290
H           4.54680         1.46330        -3.24700
H           6.25220         1.60990        -2.80490
H           3.18700        -0.35980        -2.51630
H           1.22220        -1.28200        -1.48770
H           0.69560        -1.85490         1.64490
H          -1.73110        -2.39470         2.16940
H          -3.96380        -1.56300         2.39650
H          -3.77540        -2.05770         0.71110
H          -3.76430        -0.34080         1.15830
H          -0.33200        -2.62880        -1.17210
H          -0.50940        -3.42050         0.39440
H          -1.93410        -3.00280        -0.55890
H          -2.45880        -0.66740        -1.02630
H          -0.84850        -0.21530        -1.46490
H          -2.32240         1.26670         0.77540
H          -2.46380         1.80670        -2.22720
H          -3.13110         2.83410        -0.94490
H          -3.79270         1.21910        -1.20880
H          -0.03440         2.04000        -1.10270
H           0.00780         1.93860         0.67080
H          -0.93080         3.19130        -0.10460
H           2.23070         0.68290         2.22530
H           4.23140         1.61000         1.16220

