
     RDKit          3D

 44 45  0  0  0  0  0  0  0  0999 V2000
    5.3267    1.0679   -2.5877 C   0  0  0  0  0  0  0  0  0  0  0  0
    5.0044    1.2888   -1.2208 O   0  0  0  0  0  0  0  0  0  0  0  0
    3.8574    0.7105   -0.7548 C   0  0  0  0  0  0  0  0  0  0  0  0
    2.9949   -0.1074   -1.4786 C   0  0  0  0  0  0  0  0  0  0  0  0
    1.8443   -0.6398   -0.8758 C   0  0  0  0  0  0  0  0  0  0  0  0
    1.5152   -0.3533    0.4549 C   0  0  0  0  0  0  0  0  0  0  0  0
    0.3084   -0.9424    1.1657 C   0  0  0  0  0  0  0  0  0  0  0  0
   -0.1055   -0.0893    2.2526 O   0  0  0  0  0  0  0  0  0  0  0  0
   -1.3874   -0.3854    2.6078 C   0  0  0  0  0  0  0  0  0  0  0  0
   -1.9691    0.1135    3.5561 O   0  0  0  0  0  0  0  0  0  0  0  0
   -1.9348   -1.4324    1.6773 C   0  0  0  0  0  0  0  0  0  0  0  0
   -3.4370   -1.3376    1.4621 C   0  0  0  0  0  0  0  0  0  0  0  0
   -1.0168   -1.2794    0.4390 C   0  0  0  0  0  0  0  0  0  0  0  0
   -0.9372   -2.6559   -0.2638 C   0  0  0  0  0  0  0  0  0  0  0  0
   -1.5350   -0.2395   -0.6098 C   0  0  0  0  0  0  0  0  0  0  0  0
   -1.8519    1.2241   -0.2096 C   0  0  0  0  0  0  0  0  0  0  0  0
   -2.8668    1.8043   -1.2085 C   0  0  0  0  0  0  0  0  0  0  0  0
   -0.6294    2.1409   -0.1894 C   0  0  0  0  0  0  0  0  0  0  0  0
    2.4166    0.4505    1.1773 C   0  0  0  0  0  0  0  0  0  0  0  0
    3.5634    0.9811    0.5786 C   0  0  0  0  0  0  0  0  0  0  0  0
    5.5092    0.0060   -2.7829 H   0  0  0  0  0  0  0  0  0  0  0  0
    4.5468    1.4633   -3.2470 H   0  0  0  0  0  0  0  0  0  0  0  0
    6.2522    1.6099   -2.8049 H   0  0  0  0  0  0  0  0  0  0  0  0
    3.1870   -0.3598   -2.5163 H   0  0  0  0  0  0  0  0  0  0  0  0
    1.2222   -1.2820   -1.4877 H   0  0  0  0  0  0  0  0  0  0  0  0
    0.6956   -1.8549    1.6449 H   0  0  0  0  0  0  0  0  0  0  0  0
   -1.7311   -2.3947    2.1694 H   0  0  0  0  0  0  0  0  0  0  0  0
   -3.9638   -1.5630    2.3965 H   0  0  0  0  0  0  0  0  0  0  0  0
   -3.7754   -2.0577    0.7111 H   0  0  0  0  0  0  0  0  0  0  0  0
   -3.7643   -0.3408    1.1583 H   0  0  0  0  0  0  0  0  0  0  0  0
   -0.3320   -2.6288   -1.1721 H   0  0  0  0  0  0  0  0  0  0  0  0
   -0.5094   -3.4205    0.3944 H   0  0  0  0  0  0  0  0  0  0  0  0
   -1.9341   -3.0028   -0.5589 H   0  0  0  0  0  0  0  0  0  0  0  0
   -2.4588   -0.6674   -1.0263 H   0  0  0  0  0  0  0  0  0  0  0  0
   -0.8485   -0.2153   -1.4649 H   0  0  0  0  0  0  0  0  0  0  0  0
   -2.3224    1.2667    0.7754 H   0  0  0  0  0  0  0  0  0  0  0  0
   -2.4638    1.8067   -2.2272 H   0  0  0  0  0  0  0  0  0  0  0  0
   -3.1311    2.8341   -0.9449 H   0  0  0  0  0  0  0  0  0  0  0  0
   -3.7927    1.2191   -1.2088 H   0  0  0  0  0  0  0  0  0  0  0  0
   -0.0344    2.0400   -1.1027 H   0  0  0  0  0  0  0  0  0  0  0  0
    0.0078    1.9386    0.6708 H   0  0  0  0  0  0  0  0  0  0  0  0
   -0.9308    3.1913   -0.1046 H   0  0  0  0  0  0  0  0  0  0  0  0
    2.2307    0.6829    2.2253 H   0  0  0  0  0  0  0  0  0  0  0  0
    4.2314    1.6100    1.1622 H   0  0  0  0  0  0  0  0  0  0  0  0
  1  2  1  0
  2  3  1  0
  3  4  2  0
  4  5  1  0
  5  6  2  0
  6  7  1  0
  7  8  1  0
  8  9  1  0
  9 10  2  0
  9 11  1  0
 11 12  1  0
 11 13  1  0
 13 14  1  0
 13 15  1  0
 15 16  1  0
 16 17  1  0
 16 18  1  0
  6 19  1  0
 19 20  2  0
 20  3  1  0
 13  7  1  0
  1 21  1  0
  1 22  1  0
  1 23  1  0
  4 24  1  0
  5 25  1  0
  7 26  1  0
 11 27  1  0
 12 28  1  0
 12 29  1  0
 12 30  1  0
 14 31  1  0
 14 32  1  0
 14 33  1  0
 15 34  1  0
 15 35  1  0
 16 36  1  0
 17 37  1  0
 17 38  1  0
 17 39  1  0
 18 40  1  0
 18 41  1  0
 18 42  1  0
 19 43  1  0
 20 44  1  0
M  END
>  <energy_abs>  (250) 
49.77649512704349

>  <SMILES>  (250) 
COc1ccc(C2OC(=O)C(C)C2(C)CC(C)C)cc1

>  <cluster_no>  (250) 
250

>  <ccdc_id>  (250) 
33

>  <initial_conformation_id>  (250) 
5

>  <minimize_method>  (250) 
MMFF

$$$$
