#Put Keywords Here, check Charge and Multiplicity.

 

0  1
C           5.73290         0.76790        -2.29580
O           5.50630         0.29720        -0.97360
C           4.20950         0.25920        -0.54460
C           4.03130        -0.23630         0.74350
C           2.75200        -0.32750         1.30150
C           1.60430         0.06050         0.58400
C           0.24440        -0.02040         1.26860
O           0.25820        -1.16210         2.15140
C          -1.00360        -1.61400         2.36350
O          -1.28660        -2.53140         3.11650
C          -1.98780        -0.79080         1.57850
C          -2.65600         0.16660         2.56310
C          -1.08460        -0.17960         0.47110
C          -0.93540        -1.23560        -0.65480
C          -1.58750         1.18980        -0.07830
C          -2.66250         1.18570        -1.19110
C          -4.01370         0.62710        -0.75240
C          -2.86040         2.61570        -1.71200
C           1.80790         0.57790        -0.70220
C           3.09170         0.66960        -1.26440
H           6.80900         0.71920        -2.48830
H           5.42280         1.81280        -2.40080
H           5.23350         0.13080        -3.03340
H           4.89390        -0.55490         1.32390
H           2.66350        -0.71360         2.31650
H           0.18280         0.86940         1.91120
H          -2.73700        -1.46610         1.15210
H          -1.93690         0.85320         3.02240
H          -3.43880         0.75840         2.08450
H          -3.12930        -0.39120         3.37960
H          -0.39920        -2.12770        -0.31200
H          -1.91240        -1.57330        -1.01690
H          -0.39650        -0.84280        -1.52080
H          -0.72870         1.73630        -0.48010
H          -1.92990         1.82610         0.74640
H          -2.30190         0.58920        -2.03700
H          -4.43530         1.20550         0.07530
H          -3.94220        -0.41830        -0.44650
H          -4.73160         0.66760        -1.57950
H          -3.58780         2.63540        -2.53060
H          -1.91970         3.02490        -2.09570
H          -3.22240         3.28050        -0.92020
H           0.98300         0.92390        -1.31490
H           3.17780         1.07200        -2.26840

