
     RDKit          3D

 44 45  0  0  0  0  0  0  0  0999 V2000
    5.7329    0.7679   -2.2958 C   0  0  0  0  0  0  0  0  0  0  0  0
    5.5063    0.2972   -0.9736 O   0  0  0  0  0  0  0  0  0  0  0  0
    4.2095    0.2592   -0.5446 C   0  0  0  0  0  0  0  0  0  0  0  0
    4.0313   -0.2363    0.7435 C   0  0  0  0  0  0  0  0  0  0  0  0
    2.7520   -0.3275    1.3015 C   0  0  0  0  0  0  0  0  0  0  0  0
    1.6043    0.0605    0.5840 C   0  0  0  0  0  0  0  0  0  0  0  0
    0.2444   -0.0204    1.2686 C   0  0  0  0  0  0  0  0  0  0  0  0
    0.2582   -1.1621    2.1514 O   0  0  0  0  0  0  0  0  0  0  0  0
   -1.0036   -1.6140    2.3635 C   0  0  0  0  0  0  0  0  0  0  0  0
   -1.2866   -2.5314    3.1165 O   0  0  0  0  0  0  0  0  0  0  0  0
   -1.9878   -0.7908    1.5785 C   0  0  0  0  0  0  0  0  0  0  0  0
   -2.6560    0.1666    2.5631 C   0  0  0  0  0  0  0  0  0  0  0  0
   -1.0846   -0.1796    0.4711 C   0  0  0  0  0  0  0  0  0  0  0  0
   -0.9354   -1.2356   -0.6548 C   0  0  0  0  0  0  0  0  0  0  0  0
   -1.5875    1.1898   -0.0783 C   0  0  0  0  0  0  0  0  0  0  0  0
   -2.6625    1.1857   -1.1911 C   0  0  0  0  0  0  0  0  0  0  0  0
   -4.0137    0.6271   -0.7524 C   0  0  0  0  0  0  0  0  0  0  0  0
   -2.8604    2.6157   -1.7120 C   0  0  0  0  0  0  0  0  0  0  0  0
    1.8079    0.5779   -0.7022 C   0  0  0  0  0  0  0  0  0  0  0  0
    3.0917    0.6696   -1.2644 C   0  0  0  0  0  0  0  0  0  0  0  0
    6.8090    0.7192   -2.4883 H   0  0  0  0  0  0  0  0  0  0  0  0
    5.4228    1.8128   -2.4008 H   0  0  0  0  0  0  0  0  0  0  0  0
    5.2335    0.1308   -3.0334 H   0  0  0  0  0  0  0  0  0  0  0  0
    4.8939   -0.5549    1.3239 H   0  0  0  0  0  0  0  0  0  0  0  0
    2.6635   -0.7136    2.3165 H   0  0  0  0  0  0  0  0  0  0  0  0
    0.1828    0.8694    1.9112 H   0  0  0  0  0  0  0  0  0  0  0  0
   -2.7370   -1.4661    1.1521 H   0  0  0  0  0  0  0  0  0  0  0  0
   -1.9369    0.8532    3.0224 H   0  0  0  0  0  0  0  0  0  0  0  0
   -3.4388    0.7584    2.0845 H   0  0  0  0  0  0  0  0  0  0  0  0
   -3.1293   -0.3912    3.3796 H   0  0  0  0  0  0  0  0  0  0  0  0
   -0.3992   -2.1277   -0.3120 H   0  0  0  0  0  0  0  0  0  0  0  0
   -1.9124   -1.5733   -1.0169 H   0  0  0  0  0  0  0  0  0  0  0  0
   -0.3965   -0.8428   -1.5208 H   0  0  0  0  0  0  0  0  0  0  0  0
   -0.7287    1.7363   -0.4801 H   0  0  0  0  0  0  0  0  0  0  0  0
   -1.9299    1.8261    0.7464 H   0  0  0  0  0  0  0  0  0  0  0  0
   -2.3019    0.5892   -2.0370 H   0  0  0  0  0  0  0  0  0  0  0  0
   -4.4353    1.2055    0.0753 H   0  0  0  0  0  0  0  0  0  0  0  0
   -3.9422   -0.4183   -0.4465 H   0  0  0  0  0  0  0  0  0  0  0  0
   -4.7316    0.6676   -1.5795 H   0  0  0  0  0  0  0  0  0  0  0  0
   -3.5878    2.6354   -2.5306 H   0  0  0  0  0  0  0  0  0  0  0  0
   -1.9197    3.0249   -2.0957 H   0  0  0  0  0  0  0  0  0  0  0  0
   -3.2224    3.2805   -0.9202 H   0  0  0  0  0  0  0  0  0  0  0  0
    0.9830    0.9239   -1.3149 H   0  0  0  0  0  0  0  0  0  0  0  0
    3.1778    1.0720   -2.2684 H   0  0  0  0  0  0  0  0  0  0  0  0
  1  2  1  0
  2  3  1  0
  3  4  2  0
  4  5  1  0
  5  6  2  0
  6  7  1  0
  7  8  1  0
  8  9  1  0
  9 10  2  0
  9 11  1  0
 11 12  1  0
 11 13  1  0
 13 14  1  0
 13 15  1  0
 15 16  1  0
 16 17  1  0
 16 18  1  0
  6 19  1  0
 19 20  2  0
 20  3  1  0
 13  7  1  0
  1 21  1  0
  1 22  1  0
  1 23  1  0
  4 24  1  0
  5 25  1  0
  7 26  1  0
 11 27  1  0
 12 28  1  0
 12 29  1  0
 12 30  1  0
 14 31  1  0
 14 32  1  0
 14 33  1  0
 15 34  1  0
 15 35  1  0
 16 36  1  0
 17 37  1  0
 17 38  1  0
 17 39  1  0
 18 40  1  0
 18 41  1  0
 18 42  1  0
 19 43  1  0
 20 44  1  0
M  END
>  <energy_abs>  (251) 
47.8959391315824

>  <SMILES>  (251) 
COc1ccc(C2OC(=O)C(C)C2(C)CC(C)C)cc1

>  <cluster_no>  (251) 
251

>  <ccdc_id>  (251) 
33

>  <initial_conformation_id>  (251) 
4

>  <minimize_method>  (251) 
MMFF

$$$$
