
     RDKit          3D

 44 45  0  0  0  0  0  0  0  0999 V2000
    5.7976    1.7021   -0.5050 C   0  0  0  0  0  0  0  0  0  0  0  0
    4.8361    1.1576   -1.4001 O   0  0  0  0  0  0  0  0  0  0  0  0
    3.6929    0.6535   -0.8452 C   0  0  0  0  0  0  0  0  0  0  0  0
    3.3770    0.6325    0.5108 C   0  0  0  0  0  0  0  0  0  0  0  0
    2.1627    0.0842    0.9432 C   0  0  0  0  0  0  0  0  0  0  0  0
    1.2321   -0.4395    0.0316 C   0  0  0  0  0  0  0  0  0  0  0  0
   -0.0811   -1.0423    0.4858 C   0  0  0  0  0  0  0  0  0  0  0  0
    0.1956   -1.8984    1.6109 O   0  0  0  0  0  0  0  0  0  0  0  0
   -0.9150   -2.0051    2.3900 C   0  0  0  0  0  0  0  0  0  0  0  0
   -0.9880   -2.7065    3.3849 O   0  0  0  0  0  0  0  0  0  0  0  0
   -2.0215   -1.1638    1.8108 C   0  0  0  0  0  0  0  0  0  0  0  0
   -2.9569   -0.6173    2.8800 C   0  0  0  0  0  0  0  0  0  0  0  0
   -1.2378   -0.1231    0.9557 C   0  0  0  0  0  0  0  0  0  0  0  0
   -0.7815    1.0476    1.8537 C   0  0  0  0  0  0  0  0  0  0  0  0
   -2.1807    0.3751   -0.1804 C   0  0  0  0  0  0  0  0  0  0  0  0
   -1.6254    1.1325   -1.4042 C   0  0  0  0  0  0  0  0  0  0  0  0
   -2.7787    1.4048   -2.3832 C   0  0  0  0  0  0  0  0  0  0  0  0
   -0.9349    2.4538   -1.0818 C   0  0  0  0  0  0  0  0  0  0  0  0
    1.5785   -0.4389   -1.3266 C   0  0  0  0  0  0  0  0  0  0  0  0
    2.7896    0.1105   -1.7583 C   0  0  0  0  0  0  0  0  0  0  0  0
    6.1711    0.9389    0.1856 H   0  0  0  0  0  0  0  0  0  0  0  0
    6.6452    2.0560   -1.0998 H   0  0  0  0  0  0  0  0  0  0  0  0
    5.3898    2.5616    0.0373 H   0  0  0  0  0  0  0  0  0  0  0  0
    4.0532    1.0251    1.2628 H   0  0  0  0  0  0  0  0  0  0  0  0
    1.9575    0.0592    2.0119 H   0  0  0  0  0  0  0  0  0  0  0  0
   -0.4415   -1.7108   -0.3092 H   0  0  0  0  0  0  0  0  0  0  0  0
   -2.5958   -1.8368    1.1592 H   0  0  0  0  0  0  0  0  0  0  0  0
   -3.5192   -1.4363    3.3429 H   0  0  0  0  0  0  0  0  0  0  0  0
   -3.6814    0.0828    2.4536 H   0  0  0  0  0  0  0  0  0  0  0  0
   -2.4154   -0.1160    3.6887 H   0  0  0  0  0  0  0  0  0  0  0  0
   -0.0710    1.7102    1.3601 H   0  0  0  0  0  0  0  0  0  0  0  0
   -0.2958    0.6924    2.7694 H   0  0  0  0  0  0  0  0  0  0  0  0
   -1.6314    1.6696    2.1565 H   0  0  0  0  0  0  0  0  0  0  0  0
   -2.9698    0.9905    0.2742 H   0  0  0  0  0  0  0  0  0  0  0  0
   -2.7048   -0.5042   -0.5823 H   0  0  0  0  0  0  0  0  0  0  0  0
   -0.9202    0.4879   -1.9334 H   0  0  0  0  0  0  0  0  0  0  0  0
   -2.4102    1.8833   -3.2971 H   0  0  0  0  0  0  0  0  0  0  0  0
   -3.2716    0.4717   -2.6766 H   0  0  0  0  0  0  0  0  0  0  0  0
   -3.5324    2.0621   -1.9361 H   0  0  0  0  0  0  0  0  0  0  0  0
    0.0507    2.2912   -0.6417 H   0  0  0  0  0  0  0  0  0  0  0  0
   -0.7691    3.0420   -1.9915 H   0  0  0  0  0  0  0  0  0  0  0  0
   -1.5335    3.0616   -0.3956 H   0  0  0  0  0  0  0  0  0  0  0  0
    0.9147   -0.8740   -2.0702 H   0  0  0  0  0  0  0  0  0  0  0  0
    3.0345    0.1071   -2.8178 H   0  0  0  0  0  0  0  0  0  0  0  0
  1  2  1  0
  2  3  1  0
  3  4  2  0
  4  5  1  0
  5  6  2  0
  6  7  1  0
  7  8  1  0
  8  9  1  0
  9 10  2  0
  9 11  1  0
 11 12  1  0
 11 13  1  0
 13 14  1  0
 13 15  1  0
 15 16  1  0
 16 17  1  0
 16 18  1  0
  6 19  1  0
 19 20  2  0
 20  3  1  0
 13  7  1  0
  1 21  1  0
  1 22  1  0
  1 23  1  0
  4 24  1  0
  5 25  1  0
  7 26  1  0
 11 27  1  0
 12 28  1  0
 12 29  1  0
 12 30  1  0
 14 31  1  0
 14 32  1  0
 14 33  1  0
 15 34  1  0
 15 35  1  0
 16 36  1  0
 17 37  1  0
 17 38  1  0
 17 39  1  0
 18 40  1  0
 18 41  1  0
 18 42  1  0
 19 43  1  0
 20 44  1  0
M  END
>  <energy_abs>  (253) 
46.52006596034877

>  <SMILES>  (253) 
COc1ccc(C2OC(=O)C(C)C2(C)CC(C)C)cc1

>  <cluster_no>  (253) 
253

>  <ccdc_id>  (253) 
33

>  <initial_conformation_id>  (253) 
2

>  <minimize_method>  (253) 
MMFF

$$$$
