
     RDKit          3D

 44 45  0  0  0  0  0  0  0  0999 V2000
    5.6867    1.7274   -1.7639 C   0  0  0  0  0  0  0  0  0  0  0  0
    5.3400    1.1058   -0.5332 O   0  0  0  0  0  0  0  0  0  0  0  0
    4.0491    0.6759   -0.3992 C   0  0  0  0  0  0  0  0  0  0  0  0
    3.7626    0.0554    0.8168 C   0  0  0  0  0  0  0  0  0  0  0  0
    2.4804   -0.4308    1.0871 C   0  0  0  0  0  0  0  0  0  0  0  0
    1.4511   -0.3011    0.1438 C   0  0  0  0  0  0  0  0  0  0  0  0
    0.0478   -0.8097    0.4138 C   0  0  0  0  0  0  0  0  0  0  0  0
    0.0732   -1.8750    1.3819 O   0  0  0  0  0  0  0  0  0  0  0  0
   -1.1172   -1.9127    2.0469 C   0  0  0  0  0  0  0  0  0  0  0  0
   -1.4055   -2.7523    2.8833 O   0  0  0  0  0  0  0  0  0  0  0  0
   -2.0098   -0.7974    1.5609 C   0  0  0  0  0  0  0  0  0  0  0  0
   -2.9276   -0.2657    2.6499 C   0  0  0  0  0  0  0  0  0  0  0  0
   -0.9857    0.1960    0.9763 C   0  0  0  0  0  0  0  0  0  0  0  0
   -0.3442    1.0597    2.1017 C   0  0  0  0  0  0  0  0  0  0  0  0
   -1.5818    1.1887   -0.0642 C   0  0  0  0  0  0  0  0  0  0  0  0
   -2.6921    0.7353   -1.0411 C   0  0  0  0  0  0  0  0  0  0  0  0
   -3.1819    1.9543   -1.8376 C   0  0  0  0  0  0  0  0  0  0  0  0
   -2.2737   -0.3557   -2.0227 C   0  0  0  0  0  0  0  0  0  0  0  0
    1.7516    0.3176   -1.0792 C   0  0  0  0  0  0  0  0  0  0  0  0
    3.0374    0.8037   -1.3486 C   0  0  0  0  0  0  0  0  0  0  0  0
    5.1103    2.6455   -1.9184 H   0  0  0  0  0  0  0  0  0  0  0  0
    5.5631    1.0362   -2.6043 H   0  0  0  0  0  0  0  0  0  0  0  0
    6.7444    2.0033   -1.7129 H   0  0  0  0  0  0  0  0  0  0  0  0
    4.5461   -0.0547    1.5628 H   0  0  0  0  0  0  0  0  0  0  0  0
    2.2976   -0.9136    2.0453 H   0  0  0  0  0  0  0  0  0  0  0  0
   -0.2984   -1.2796   -0.5106 H   0  0  0  0  0  0  0  0  0  0  0  0
   -2.6243   -1.2433    0.7714 H   0  0  0  0  0  0  0  0  0  0  0  0
   -3.6767   -1.0208    2.9137 H   0  0  0  0  0  0  0  0  0  0  0  0
   -3.4602    0.6297    2.3153 H   0  0  0  0  0  0  0  0  0  0  0  0
   -2.3846   -0.0310    3.5713 H   0  0  0  0  0  0  0  0  0  0  0  0
    0.4272    1.7262    1.7000 H   0  0  0  0  0  0  0  0  0  0  0  0
   -1.0867    1.7042    2.5856 H   0  0  0  0  0  0  0  0  0  0  0  0
    0.1148    0.4462    2.8844 H   0  0  0  0  0  0  0  0  0  0  0  0
   -0.7629    1.6363   -0.6408 H   0  0  0  0  0  0  0  0  0  0  0  0
   -2.0148    2.0260    0.5028 H   0  0  0  0  0  0  0  0  0  0  0  0
   -3.5512    0.3726   -0.4644 H   0  0  0  0  0  0  0  0  0  0  0  0
   -4.0111    1.6811   -2.4991 H   0  0  0  0  0  0  0  0  0  0  0  0
   -3.5422    2.7413   -1.1664 H   0  0  0  0  0  0  0  0  0  0  0  0
   -2.3797    2.3737   -2.4544 H   0  0  0  0  0  0  0  0  0  0  0  0
   -1.3388   -0.1000   -2.5308 H   0  0  0  0  0  0  0  0  0  0  0  0
   -2.1519   -1.3193   -1.5228 H   0  0  0  0  0  0  0  0  0  0  0  0
   -3.0406   -0.5030   -2.7915 H   0  0  0  0  0  0  0  0  0  0  0  0
    0.9868    0.4251   -1.8449 H   0  0  0  0  0  0  0  0  0  0  0  0
    3.2132    1.2738   -2.3103 H   0  0  0  0  0  0  0  0  0  0  0  0
  1  2  1  0
  2  3  1  0
  3  4  2  0
  4  5  1  0
  5  6  2  0
  6  7  1  0
  7  8  1  0
  8  9  1  0
  9 10  2  0
  9 11  1  0
 11 12  1  0
 11 13  1  0
 13 14  1  0
 13 15  1  0
 15 16  1  0
 16 17  1  0
 16 18  1  0
  6 19  1  0
 19 20  2  0
 20  3  1  0
 13  7  1  0
  1 21  1  0
  1 22  1  0
  1 23  1  0
  4 24  1  0
  5 25  1  0
  7 26  1  0
 11 27  1  0
 12 28  1  0
 12 29  1  0
 12 30  1  0
 14 31  1  0
 14 32  1  0
 14 33  1  0
 15 34  1  0
 15 35  1  0
 16 36  1  0
 17 37  1  0
 17 38  1  0
 17 39  1  0
 18 40  1  0
 18 41  1  0
 18 42  1  0
 19 43  1  0
 20 44  1  0
M  END
>  <energy_abs>  (254) 
44.907915916836245

>  <SMILES>  (254) 
COc1ccc(C2OC(=O)C(C)C2(C)CC(C)C)cc1

>  <cluster_no>  (254) 
254

>  <ccdc_id>  (254) 
33

>  <initial_conformation_id>  (254) 
1

>  <minimize_method>  (254) 
MMFF

$$$$
