%NProcShared=1
%Mem=10GB

#p B3LYP/6-31G* opt freq

test

0  1
C           5.35510         2.97410        -0.85930
O           5.11040         1.98380         0.13150
C           3.80380         1.65620         0.36650
C           2.69300         2.18880        -0.28420
C           1.40390         1.76030         0.05600
C           1.20120         0.79010         1.04960
C          -0.18500         0.30620         1.42610
O          -1.18580         1.26340         1.05140
C          -2.38360         0.62030         0.96180
O          -3.44620         1.18310         0.75850
C          -2.18250        -0.85980         1.18510
C          -3.21970        -1.68740         0.46280
C          -0.69210        -1.05170         0.82840
C          -0.08930        -2.21220         1.63170
C          -0.34760        -1.12340        -0.70430
C          -0.53350        -2.34450        -1.64850
C          -0.22950        -3.72270        -1.07740
C          -1.85060        -2.36740        -2.42520
C           2.32640         0.26680         1.70190
C           3.61200         0.69540         1.36000
H           6.43710         3.12540        -0.92040
H           5.00950         2.64140        -1.84360
H           4.90040         3.93110        -0.58230
H           2.78930         2.94040        -1.06060
H           0.55520         2.19610        -0.46900
H          -0.21300         0.27810         2.52620
H          -2.32020        -1.02250         2.26420
H          -2.94100        -2.74320         0.42820
H          -3.40920        -1.30840        -0.54380
H          -4.17940        -1.62310         0.98970
H          -0.66250        -3.13340         1.50790
H           0.94980        -2.40240         1.34640
H          -0.09370        -1.99970         2.70750
H          -0.79140        -0.25040        -1.20210
H           0.73630        -0.95030        -0.76190
H           0.22670        -2.18510        -2.42980
H           0.73950        -3.73940        -0.57090
H          -0.18010        -4.46360        -1.88410
H          -1.00850        -4.05920        -0.38890
H          -1.72520        -2.93790        -3.35340
H          -2.17370        -1.36040        -2.70590
H          -2.65100        -2.86140        -1.87120
H           2.21760        -0.47690         2.48780
H           4.47370         0.27840         1.87590

