
     RDKit          3D

 44 45  0  0  0  0  0  0  0  0999 V2000
    5.3551    2.9741   -0.8593 C   0  0  0  0  0  0  0  0  0  0  0  0
    5.1104    1.9838    0.1315 O   0  0  0  0  0  0  0  0  0  0  0  0
    3.8038    1.6562    0.3665 C   0  0  0  0  0  0  0  0  0  0  0  0
    2.6930    2.1888   -0.2842 C   0  0  0  0  0  0  0  0  0  0  0  0
    1.4039    1.7603    0.0560 C   0  0  0  0  0  0  0  0  0  0  0  0
    1.2012    0.7901    1.0496 C   0  0  0  0  0  0  0  0  0  0  0  0
   -0.1850    0.3062    1.4261 C   0  0  0  0  0  0  0  0  0  0  0  0
   -1.1858    1.2634    1.0514 O   0  0  0  0  0  0  0  0  0  0  0  0
   -2.3836    0.6203    0.9618 C   0  0  0  0  0  0  0  0  0  0  0  0
   -3.4462    1.1831    0.7585 O   0  0  0  0  0  0  0  0  0  0  0  0
   -2.1825   -0.8598    1.1851 C   0  0  0  0  0  0  0  0  0  0  0  0
   -3.2197   -1.6874    0.4628 C   0  0  0  0  0  0  0  0  0  0  0  0
   -0.6921   -1.0517    0.8284 C   0  0  0  0  0  0  0  0  0  0  0  0
   -0.0893   -2.2122    1.6317 C   0  0  0  0  0  0  0  0  0  0  0  0
   -0.3476   -1.1234   -0.7043 C   0  0  0  0  0  0  0  0  0  0  0  0
   -0.5335   -2.3445   -1.6485 C   0  0  0  0  0  0  0  0  0  0  0  0
   -0.2295   -3.7227   -1.0774 C   0  0  0  0  0  0  0  0  0  0  0  0
   -1.8506   -2.3674   -2.4252 C   0  0  0  0  0  0  0  0  0  0  0  0
    2.3264    0.2668    1.7019 C   0  0  0  0  0  0  0  0  0  0  0  0
    3.6120    0.6954    1.3600 C   0  0  0  0  0  0  0  0  0  0  0  0
    6.4371    3.1254   -0.9204 H   0  0  0  0  0  0  0  0  0  0  0  0
    5.0095    2.6414   -1.8436 H   0  0  0  0  0  0  0  0  0  0  0  0
    4.9004    3.9311   -0.5823 H   0  0  0  0  0  0  0  0  0  0  0  0
    2.7893    2.9404   -1.0606 H   0  0  0  0  0  0  0  0  0  0  0  0
    0.5552    2.1961   -0.4690 H   0  0  0  0  0  0  0  0  0  0  0  0
   -0.2130    0.2781    2.5262 H   0  0  0  0  0  0  0  0  0  0  0  0
   -2.3202   -1.0225    2.2642 H   0  0  0  0  0  0  0  0  0  0  0  0
   -2.9410   -2.7432    0.4282 H   0  0  0  0  0  0  0  0  0  0  0  0
   -3.4092   -1.3084   -0.5438 H   0  0  0  0  0  0  0  0  0  0  0  0
   -4.1794   -1.6231    0.9897 H   0  0  0  0  0  0  0  0  0  0  0  0
   -0.6625   -3.1334    1.5079 H   0  0  0  0  0  0  0  0  0  0  0  0
    0.9498   -2.4024    1.3464 H   0  0  0  0  0  0  0  0  0  0  0  0
   -0.0937   -1.9997    2.7075 H   0  0  0  0  0  0  0  0  0  0  0  0
   -0.7914   -0.2504   -1.2021 H   0  0  0  0  0  0  0  0  0  0  0  0
    0.7363   -0.9503   -0.7619 H   0  0  0  0  0  0  0  0  0  0  0  0
    0.2267   -2.1851   -2.4298 H   0  0  0  0  0  0  0  0  0  0  0  0
    0.7395   -3.7394   -0.5709 H   0  0  0  0  0  0  0  0  0  0  0  0
   -0.1801   -4.4636   -1.8841 H   0  0  0  0  0  0  0  0  0  0  0  0
   -1.0085   -4.0592   -0.3889 H   0  0  0  0  0  0  0  0  0  0  0  0
   -1.7252   -2.9379   -3.3534 H   0  0  0  0  0  0  0  0  0  0  0  0
   -2.1737   -1.3604   -2.7059 H   0  0  0  0  0  0  0  0  0  0  0  0
   -2.6510   -2.8614   -1.8712 H   0  0  0  0  0  0  0  0  0  0  0  0
    2.2176   -0.4769    2.4878 H   0  0  0  0  0  0  0  0  0  0  0  0
    4.4737    0.2784    1.8759 H   0  0  0  0  0  0  0  0  0  0  0  0
  1  2  1  0
  2  3  1  0
  3  4  2  0
  4  5  1  0
  5  6  2  0
  6  7  1  0
  7  8  1  0
  8  9  1  0
  9 10  2  0
  9 11  1  0
 11 12  1  0
 11 13  1  0
 13 14  1  0
 13 15  1  0
 15 16  1  0
 16 17  1  0
 16 18  1  0
  6 19  1  0
 19 20  2  0
 20  3  1  0
 13  7  1  0
  1 21  1  0
  1 22  1  0
  1 23  1  0
  4 24  1  0
  5 25  1  0
  7 26  1  0
 11 27  1  0
 12 28  1  0
 12 29  1  0
 12 30  1  0
 14 31  1  0
 14 32  1  0
 14 33  1  0
 15 34  1  0
 15 35  1  0
 16 36  1  0
 17 37  1  0
 17 38  1  0
 17 39  1  0
 18 40  1  0
 18 41  1  0
 18 42  1  0
 19 43  1  0
 20 44  1  0
M  END
>  <energy_abs>  (27) 
55.89183545886346

>  <SMILES>  (27) 
COc1ccc(C2OC(=O)C(C)C2(C)CC(C)C)cc1

>  <cluster_no>  (27) 
27

>  <ccdc_id>  (27) 
33

>  <initial_conformation_id>  (27) 
94

>  <minimize_method>  (27) 
MMFF

$$$$
