#Put Keywords Here, check Charge and Multiplicity.

 

0  1
C           5.06250         2.22710         3.28620
O           3.86000         2.81450         2.80620
C           3.07030         2.03930         2.00360
C           3.32160         0.72210         1.62850
C           2.42120         0.04280         0.79830
C           1.24910         0.66160         0.33090
C           0.29650        -0.12670        -0.55760
O          -0.44340         0.75560        -1.42110
C          -1.71620         0.90830        -0.94980
O          -2.54870         1.63890        -1.46040
C          -1.90120         0.08280         0.29840
C          -3.32710        -0.42310         0.46390
C          -0.78970        -0.98490         0.13500
C          -0.41460        -1.53330         1.52240
C          -1.28930        -2.14970        -0.79540
C          -0.27350        -3.08500        -1.49480
C          -1.04230        -4.13490        -2.31050
C           0.69430        -3.79450        -0.55490
C           1.01540         1.99110         0.70700
C           1.91580         2.66740         1.53650
H           5.57780         2.97320         3.89870
H           5.72810         1.95780         2.45940
H           4.85200         1.36150         3.92300
H           4.20820         0.19250         1.96060
H           2.64870        -0.98390         0.51770
H           0.92420        -0.73130        -1.21780
H          -1.67420         0.74450         1.14460
H          -3.40330        -1.12730         1.29770
H          -4.00070         0.41560         0.67410
H          -3.70810        -0.90670        -0.44100
H          -1.20780        -2.17720         1.91860
H          -0.27210        -0.72790         2.25200
H           0.50700        -2.11590         1.51150
H          -1.98860        -2.77360        -0.22130
H          -1.88960        -1.71100        -1.60470
H           0.31300        -2.50310        -2.21490
H          -1.71510        -3.65520        -3.02940
H          -0.35290        -4.77040        -2.87670
H          -1.64280        -4.78100        -1.66090
H           1.26140        -4.56660        -1.08690
H           1.42960        -3.09600        -0.14860
H           0.16650        -4.27870         0.27300
H           0.14000         2.53240         0.35610
H           1.71580         3.69960         1.81540

