
     RDKit          3D

 44 45  0  0  0  0  0  0  0  0999 V2000
    5.0625    2.2271    3.2862 C   0  0  0  0  0  0  0  0  0  0  0  0
    3.8600    2.8145    2.8062 O   0  0  0  0  0  0  0  0  0  0  0  0
    3.0703    2.0393    2.0036 C   0  0  0  0  0  0  0  0  0  0  0  0
    3.3216    0.7221    1.6285 C   0  0  0  0  0  0  0  0  0  0  0  0
    2.4212    0.0428    0.7983 C   0  0  0  0  0  0  0  0  0  0  0  0
    1.2491    0.6616    0.3309 C   0  0  0  0  0  0  0  0  0  0  0  0
    0.2965   -0.1267   -0.5576 C   0  0  0  0  0  0  0  0  0  0  0  0
   -0.4434    0.7556   -1.4211 O   0  0  0  0  0  0  0  0  0  0  0  0
   -1.7162    0.9083   -0.9498 C   0  0  0  0  0  0  0  0  0  0  0  0
   -2.5487    1.6389   -1.4604 O   0  0  0  0  0  0  0  0  0  0  0  0
   -1.9012    0.0828    0.2984 C   0  0  0  0  0  0  0  0  0  0  0  0
   -3.3271   -0.4231    0.4639 C   0  0  0  0  0  0  0  0  0  0  0  0
   -0.7897   -0.9849    0.1350 C   0  0  0  0  0  0  0  0  0  0  0  0
   -0.4146   -1.5333    1.5224 C   0  0  0  0  0  0  0  0  0  0  0  0
   -1.2893   -2.1497   -0.7954 C   0  0  0  0  0  0  0  0  0  0  0  0
   -0.2735   -3.0850   -1.4948 C   0  0  0  0  0  0  0  0  0  0  0  0
   -1.0423   -4.1349   -2.3105 C   0  0  0  0  0  0  0  0  0  0  0  0
    0.6943   -3.7945   -0.5549 C   0  0  0  0  0  0  0  0  0  0  0  0
    1.0154    1.9911    0.7070 C   0  0  0  0  0  0  0  0  0  0  0  0
    1.9158    2.6674    1.5365 C   0  0  0  0  0  0  0  0  0  0  0  0
    5.5778    2.9732    3.8987 H   0  0  0  0  0  0  0  0  0  0  0  0
    5.7281    1.9578    2.4594 H   0  0  0  0  0  0  0  0  0  0  0  0
    4.8520    1.3615    3.9230 H   0  0  0  0  0  0  0  0  0  0  0  0
    4.2082    0.1925    1.9606 H   0  0  0  0  0  0  0  0  0  0  0  0
    2.6487   -0.9839    0.5177 H   0  0  0  0  0  0  0  0  0  0  0  0
    0.9242   -0.7313   -1.2178 H   0  0  0  0  0  0  0  0  0  0  0  0
   -1.6742    0.7445    1.1446 H   0  0  0  0  0  0  0  0  0  0  0  0
   -3.4033   -1.1273    1.2977 H   0  0  0  0  0  0  0  0  0  0  0  0
   -4.0007    0.4156    0.6741 H   0  0  0  0  0  0  0  0  0  0  0  0
   -3.7081   -0.9067   -0.4410 H   0  0  0  0  0  0  0  0  0  0  0  0
   -1.2078   -2.1772    1.9186 H   0  0  0  0  0  0  0  0  0  0  0  0
   -0.2721   -0.7279    2.2520 H   0  0  0  0  0  0  0  0  0  0  0  0
    0.5070   -2.1159    1.5115 H   0  0  0  0  0  0  0  0  0  0  0  0
   -1.9886   -2.7736   -0.2213 H   0  0  0  0  0  0  0  0  0  0  0  0
   -1.8896   -1.7110   -1.6047 H   0  0  0  0  0  0  0  0  0  0  0  0
    0.3130   -2.5031   -2.2149 H   0  0  0  0  0  0  0  0  0  0  0  0
   -1.7151   -3.6552   -3.0294 H   0  0  0  0  0  0  0  0  0  0  0  0
   -0.3529   -4.7704   -2.8767 H   0  0  0  0  0  0  0  0  0  0  0  0
   -1.6428   -4.7810   -1.6609 H   0  0  0  0  0  0  0  0  0  0  0  0
    1.2614   -4.5666   -1.0869 H   0  0  0  0  0  0  0  0  0  0  0  0
    1.4296   -3.0960   -0.1486 H   0  0  0  0  0  0  0  0  0  0  0  0
    0.1665   -4.2787    0.2730 H   0  0  0  0  0  0  0  0  0  0  0  0
    0.1400    2.5324    0.3561 H   0  0  0  0  0  0  0  0  0  0  0  0
    1.7158    3.6996    1.8154 H   0  0  0  0  0  0  0  0  0  0  0  0
  1  2  1  0
  2  3  1  0
  3  4  2  0
  4  5  1  0
  5  6  2  0
  6  7  1  0
  7  8  1  0
  8  9  1  0
  9 10  2  0
  9 11  1  0
 11 12  1  0
 11 13  1  0
 13 14  1  0
 13 15  1  0
 15 16  1  0
 16 17  1  0
 16 18  1  0
  6 19  1  0
 19 20  2  0
 20  3  1  0
 13  7  1  0
  1 21  1  0
  1 22  1  0
  1 23  1  0
  4 24  1  0
  5 25  1  0
  7 26  1  0
 11 27  1  0
 12 28  1  0
 12 29  1  0
 12 30  1  0
 14 31  1  0
 14 32  1  0
 14 33  1  0
 15 34  1  0
 15 35  1  0
 16 36  1  0
 17 37  1  0
 17 38  1  0
 17 39  1  0
 18 40  1  0
 18 41  1  0
 18 42  1  0
 19 43  1  0
 20 44  1  0
M  END
>  <energy_abs>  (3) 
46.0972404834002

>  <SMILES>  (3) 
COc1ccc(C2OC(=O)C(C)C2(C)CC(C)C)cc1

>  <cluster_no>  (3) 
3

>  <ccdc_id>  (3) 
33

>  <initial_conformation_id>  (3) 
235

>  <minimize_method>  (3) 
MMFF

$$$$
