%NProcShared=1
%Mem=10GB

#p B3LYP/6-31G* opt freq

test

0  1
C           5.23660         1.72090         3.08720
O           3.98750         1.28570         3.60950
C           2.94740         1.19620         2.72650
C           3.00000         1.47740         1.36310
C           1.85340         1.34190         0.57040
C           0.63500         0.91890         1.12300
C          -0.61640         0.75680         0.28130
O          -0.52900         1.51130        -0.93650
C          -1.33390         0.93790        -1.87430
O          -1.54010         1.41230        -2.97960
C          -1.94660        -0.33280        -1.34010
C          -3.40130        -0.05460        -0.96850
C          -0.99240        -0.68050        -0.17780
C          -1.66220        -1.44320         0.97730
C           0.28120        -1.44630        -0.68720
C           0.13640        -2.67730        -1.61390
C           1.53140        -3.25060        -1.90280
C          -0.75800        -3.78560        -1.07010
C           0.59300         0.64800         2.49790
C           1.73860         0.78300         3.28730
H           5.95410         1.74440         3.91310
H           5.61620         1.01990         2.33650
H           5.16320         2.73510         2.68100
H           3.91420         1.80670         0.88070
H           1.92560         1.57340        -0.49130
H          -1.43740         1.21670         0.84950
H          -1.92760        -1.09080        -2.12560
H          -3.96100         0.28900        -1.84610
H          -3.49280         0.72630        -0.20650
H          -3.89390        -0.95900        -0.59860
H          -2.36270        -0.80660         1.52960
H          -0.92340        -1.80790         1.69870
H          -2.23510        -2.30440         0.62850
H           0.87440        -1.74710         0.18770
H           0.91410        -0.73630        -1.23720
H          -0.27040        -2.35260        -2.57860
H           2.18540        -2.48650        -2.33660
H           2.00450        -3.62450        -0.98830
H           1.47240        -4.07910        -2.61680
H          -0.67540        -4.69080        -1.68210
H          -1.80970        -3.48910        -1.09700
H          -0.48770        -4.05100        -0.04300
H          -0.33250         0.33370         2.97460
H           1.68750         0.56730         4.35190

