
     RDKit          3D

 44 45  0  0  0  0  0  0  0  0999 V2000
    5.2366    1.7209    3.0872 C   0  0  0  0  0  0  0  0  0  0  0  0
    3.9875    1.2857    3.6095 O   0  0  0  0  0  0  0  0  0  0  0  0
    2.9474    1.1962    2.7265 C   0  0  0  0  0  0  0  0  0  0  0  0
    3.0000    1.4774    1.3631 C   0  0  0  0  0  0  0  0  0  0  0  0
    1.8534    1.3419    0.5704 C   0  0  0  0  0  0  0  0  0  0  0  0
    0.6350    0.9189    1.1230 C   0  0  0  0  0  0  0  0  0  0  0  0
   -0.6164    0.7568    0.2813 C   0  0  0  0  0  0  0  0  0  0  0  0
   -0.5290    1.5113   -0.9365 O   0  0  0  0  0  0  0  0  0  0  0  0
   -1.3339    0.9379   -1.8743 C   0  0  0  0  0  0  0  0  0  0  0  0
   -1.5401    1.4123   -2.9796 O   0  0  0  0  0  0  0  0  0  0  0  0
   -1.9466   -0.3328   -1.3401 C   0  0  0  0  0  0  0  0  0  0  0  0
   -3.4013   -0.0546   -0.9685 C   0  0  0  0  0  0  0  0  0  0  0  0
   -0.9924   -0.6805   -0.1778 C   0  0  0  0  0  0  0  0  0  0  0  0
   -1.6622   -1.4432    0.9773 C   0  0  0  0  0  0  0  0  0  0  0  0
    0.2812   -1.4463   -0.6872 C   0  0  0  0  0  0  0  0  0  0  0  0
    0.1364   -2.6773   -1.6139 C   0  0  0  0  0  0  0  0  0  0  0  0
    1.5314   -3.2506   -1.9028 C   0  0  0  0  0  0  0  0  0  0  0  0
   -0.7580   -3.7856   -1.0701 C   0  0  0  0  0  0  0  0  0  0  0  0
    0.5930    0.6480    2.4979 C   0  0  0  0  0  0  0  0  0  0  0  0
    1.7386    0.7830    3.2873 C   0  0  0  0  0  0  0  0  0  0  0  0
    5.9541    1.7444    3.9131 H   0  0  0  0  0  0  0  0  0  0  0  0
    5.6162    1.0199    2.3365 H   0  0  0  0  0  0  0  0  0  0  0  0
    5.1632    2.7351    2.6810 H   0  0  0  0  0  0  0  0  0  0  0  0
    3.9142    1.8067    0.8807 H   0  0  0  0  0  0  0  0  0  0  0  0
    1.9256    1.5734   -0.4913 H   0  0  0  0  0  0  0  0  0  0  0  0
   -1.4374    1.2167    0.8495 H   0  0  0  0  0  0  0  0  0  0  0  0
   -1.9276   -1.0908   -2.1256 H   0  0  0  0  0  0  0  0  0  0  0  0
   -3.9610    0.2890   -1.8461 H   0  0  0  0  0  0  0  0  0  0  0  0
   -3.4928    0.7263   -0.2065 H   0  0  0  0  0  0  0  0  0  0  0  0
   -3.8939   -0.9590   -0.5986 H   0  0  0  0  0  0  0  0  0  0  0  0
   -2.3627   -0.8066    1.5296 H   0  0  0  0  0  0  0  0  0  0  0  0
   -0.9234   -1.8079    1.6987 H   0  0  0  0  0  0  0  0  0  0  0  0
   -2.2351   -2.3044    0.6285 H   0  0  0  0  0  0  0  0  0  0  0  0
    0.8744   -1.7471    0.1877 H   0  0  0  0  0  0  0  0  0  0  0  0
    0.9141   -0.7363   -1.2372 H   0  0  0  0  0  0  0  0  0  0  0  0
   -0.2704   -2.3526   -2.5786 H   0  0  0  0  0  0  0  0  0  0  0  0
    2.1854   -2.4865   -2.3366 H   0  0  0  0  0  0  0  0  0  0  0  0
    2.0045   -3.6245   -0.9883 H   0  0  0  0  0  0  0  0  0  0  0  0
    1.4724   -4.0791   -2.6168 H   0  0  0  0  0  0  0  0  0  0  0  0
   -0.6754   -4.6908   -1.6821 H   0  0  0  0  0  0  0  0  0  0  0  0
   -1.8097   -3.4891   -1.0970 H   0  0  0  0  0  0  0  0  0  0  0  0
   -0.4877   -4.0510   -0.0430 H   0  0  0  0  0  0  0  0  0  0  0  0
   -0.3325    0.3337    2.9746 H   0  0  0  0  0  0  0  0  0  0  0  0
    1.6875    0.5673    4.3519 H   0  0  0  0  0  0  0  0  0  0  0  0
  1  2  1  0
  2  3  1  0
  3  4  2  0
  4  5  1  0
  5  6  2  0
  6  7  1  0
  7  8  1  0
  8  9  1  0
  9 10  2  0
  9 11  1  0
 11 12  1  0
 11 13  1  0
 13 14  1  0
 13 15  1  0
 15 16  1  0
 16 17  1  0
 16 18  1  0
  6 19  1  0
 19 20  2  0
 20  3  1  0
 13  7  1  0
  1 21  1  0
  1 22  1  0
  1 23  1  0
  4 24  1  0
  5 25  1  0
  7 26  1  0
 11 27  1  0
 12 28  1  0
 12 29  1  0
 12 30  1  0
 14 31  1  0
 14 32  1  0
 14 33  1  0
 15 34  1  0
 15 35  1  0
 16 36  1  0
 17 37  1  0
 17 38  1  0
 17 39  1  0
 18 40  1  0
 18 41  1  0
 18 42  1  0
 19 43  1  0
 20 44  1  0
M  END
>  <energy_abs>  (32) 
44.93421057770499

>  <SMILES>  (32) 
COc1ccc(C2OC(=O)C(C)C2(C)CC(C)C)cc1

>  <cluster_no>  (32) 
32

>  <ccdc_id>  (32) 
33

>  <initial_conformation_id>  (32) 
289

>  <minimize_method>  (32) 
MMFF

$$$$
