
     RDKit          3D

 44 45  0  0  0  0  0  0  0  0999 V2000
    4.7569    1.2163    3.7726 C   0  0  0  0  0  0  0  0  0  0  0  0
    4.3102    1.6389    2.4906 O   0  0  0  0  0  0  0  0  0  0  0  0
    3.0636    1.2317    2.1057 C   0  0  0  0  0  0  0  0  0  0  0  0
    2.6562    1.6945    0.8554 C   0  0  0  0  0  0  0  0  0  0  0  0
    1.4029    1.3528    0.3348 C   0  0  0  0  0  0  0  0  0  0  0  0
    0.5296    0.5214    1.0485 C   0  0  0  0  0  0  0  0  0  0  0  0
   -0.8443    0.1214    0.5367 C   0  0  0  0  0  0  0  0  0  0  0  0
   -1.5997    1.3247    0.3049 O   0  0  0  0  0  0  0  0  0  0  0  0
   -1.7415    1.5447   -1.0315 C   0  0  0  0  0  0  0  0  0  0  0  0
   -2.2871    2.5282   -1.5048 O   0  0  0  0  0  0  0  0  0  0  0  0
   -1.1065    0.4246   -1.8166 C   0  0  0  0  0  0  0  0  0  0  0  0
   -1.8906    0.1145   -3.0865 C   0  0  0  0  0  0  0  0  0  0  0  0
   -1.0034   -0.7079   -0.7665 C   0  0  0  0  0  0  0  0  0  0  0  0
   -2.3411   -1.4901   -0.6884 C   0  0  0  0  0  0  0  0  0  0  0  0
    0.1649   -1.6699   -1.1320 C   0  0  0  0  0  0  0  0  0  0  0  0
    0.2090   -3.0777   -0.4940 C   0  0  0  0  0  0  0  0  0  0  0  0
    1.3433   -3.8899   -1.1338 C   0  0  0  0  0  0  0  0  0  0  0  0
    0.3969   -3.0701    1.0186 C   0  0  0  0  0  0  0  0  0  0  0  0
    0.9434    0.0841    2.3188 C   0  0  0  0  0  0  0  0  0  0  0  0
    2.1978    0.4273    2.8400 C   0  0  0  0  0  0  0  0  0  0  0  0
    4.8345    0.1252    3.8235 H   0  0  0  0  0  0  0  0  0  0  0  0
    4.1081    1.6044    4.5648 H   0  0  0  0  0  0  0  0  0  0  0  0
    5.7581    1.6288    3.9306 H   0  0  0  0  0  0  0  0  0  0  0  0
    3.3175    2.3396    0.2812 H   0  0  0  0  0  0  0  0  0  0  0  0
    1.1305    1.7701   -0.6289 H   0  0  0  0  0  0  0  0  0  0  0  0
   -1.3643   -0.3950    1.3530 H   0  0  0  0  0  0  0  0  0  0  0  0
   -0.1060    0.7600   -2.1114 H   0  0  0  0  0  0  0  0  0  0  0  0
   -2.9594   -0.0218   -2.8913 H   0  0  0  0  0  0  0  0  0  0  0  0
   -1.8071    0.9481   -3.7931 H   0  0  0  0  0  0  0  0  0  0  0  0
   -1.5075   -0.7810   -3.5844 H   0  0  0  0  0  0  0  0  0  0  0  0
   -3.2004   -0.8189   -0.5779 H   0  0  0  0  0  0  0  0  0  0  0  0
   -2.3617   -2.1667    0.1722 H   0  0  0  0  0  0  0  0  0  0  0  0
   -2.5038   -2.0958   -1.5866 H   0  0  0  0  0  0  0  0  0  0  0  0
    0.1184   -1.8318   -2.2184 H   0  0  0  0  0  0  0  0  0  0  0  0
    1.1286   -1.1734   -0.9695 H   0  0  0  0  0  0  0  0  0  0  0  0
   -0.7239   -3.6060   -0.7224 H   0  0  0  0  0  0  0  0  0  0  0  0
    1.2048   -3.9672   -2.2175 H   0  0  0  0  0  0  0  0  0  0  0  0
    2.3181   -3.4260   -0.9481 H   0  0  0  0  0  0  0  0  0  0  0  0
    1.3696   -4.9078   -0.7303 H   0  0  0  0  0  0  0  0  0  0  0  0
    1.3339   -2.5791    1.2980 H   0  0  0  0  0  0  0  0  0  0  0  0
    0.4352   -4.0944    1.4063 H   0  0  0  0  0  0  0  0  0  0  0  0
   -0.4307   -2.5699    1.5258 H   0  0  0  0  0  0  0  0  0  0  0  0
    0.2872   -0.5360    2.9274 H   0  0  0  0  0  0  0  0  0  0  0  0
    2.4610    0.0519    3.8231 H   0  0  0  0  0  0  0  0  0  0  0  0
  1  2  1  0
  2  3  1  0
  3  4  2  0
  4  5  1  0
  5  6  2  0
  6  7  1  0
  7  8  1  0
  8  9  1  0
  9 10  2  0
  9 11  1  0
 11 12  1  0
 11 13  1  0
 13 14  1  0
 13 15  1  0
 15 16  1  0
 16 17  1  0
 16 18  1  0
  6 19  1  0
 19 20  2  0
 20  3  1  0
 13  7  1  0
  1 21  1  0
  1 22  1  0
  1 23  1  0
  4 24  1  0
  5 25  1  0
  7 26  1  0
 11 27  1  0
 12 28  1  0
 12 29  1  0
 12 30  1  0
 14 31  1  0
 14 32  1  0
 14 33  1  0
 15 34  1  0
 15 35  1  0
 16 36  1  0
 17 37  1  0
 17 38  1  0
 17 39  1  0
 18 40  1  0
 18 41  1  0
 18 42  1  0
 19 43  1  0
 20 44  1  0
M  END
>  <energy_abs>  (33) 
46.2244083774764

>  <SMILES>  (33) 
COc1ccc(C2OC(=O)C(C)C2(C)CC(C)C)cc1

>  <cluster_no>  (33) 
33

>  <ccdc_id>  (33) 
33

>  <initial_conformation_id>  (33) 
288

>  <minimize_method>  (33) 
MMFF

$$$$
