
     RDKit          3D

 44 45  0  0  0  0  0  0  0  0999 V2000
    3.9176    2.6109    4.3854 C   0  0  0  0  0  0  0  0  0  0  0  0
    4.0095    1.4175    3.6175 O   0  0  0  0  0  0  0  0  0  0  0  0
    3.0741    1.2423    2.6358 C   0  0  0  0  0  0  0  0  0  0  0  0
    2.0300    2.1125    2.3304 C   0  0  0  0  0  0  0  0  0  0  0  0
    1.1383    1.8076    1.2946 C   0  0  0  0  0  0  0  0  0  0  0  0
    1.2706    0.6269    0.5474 C   0  0  0  0  0  0  0  0  0  0  0  0
    0.3105    0.2733   -0.5702 C   0  0  0  0  0  0  0  0  0  0  0  0
   -0.2678    1.4638   -1.1340 O   0  0  0  0  0  0  0  0  0  0  0  0
   -1.4842    1.1600   -1.6710 C   0  0  0  0  0  0  0  0  0  0  0  0
   -2.1815    1.9570   -2.2758 O   0  0  0  0  0  0  0  0  0  0  0  0
   -1.7977   -0.2971   -1.4307 C   0  0  0  0  0  0  0  0  0  0  0  0
   -3.2881   -0.5493   -1.2665 C   0  0  0  0  0  0  0  0  0  0  0  0
   -0.9062   -0.6163   -0.2145 C   0  0  0  0  0  0  0  0  0  0  0  0
   -1.5786   -0.1524    1.1068 C   0  0  0  0  0  0  0  0  0  0  0  0
   -0.5629   -2.1246   -0.0417 C   0  0  0  0  0  0  0  0  0  0  0  0
   -0.0066   -2.8915   -1.2646 C   0  0  0  0  0  0  0  0  0  0  0  0
    1.0472   -3.9110   -0.8140 C   0  0  0  0  0  0  0  0  0  0  0  0
   -1.1116   -3.6440   -2.0155 C   0  0  0  0  0  0  0  0  0  0  0  0
    2.3298   -0.2357    0.8591 C   0  0  0  0  0  0  0  0  0  0  0  0
    3.2181    0.0695    1.8940 C   0  0  0  0  0  0  0  0  0  0  0  0
    4.7341    2.6032    5.1140 H   0  0  0  0  0  0  0  0  0  0  0  0
    4.0427    3.4973    3.7547 H   0  0  0  0  0  0  0  0  0  0  0  0
    2.9754    2.6504    4.9420 H   0  0  0  0  0  0  0  0  0  0  0  0
    1.8784    3.0390    2.8741 H   0  0  0  0  0  0  0  0  0  0  0  0
    0.3350    2.5095    1.0761 H   0  0  0  0  0  0  0  0  0  0  0  0
    0.9058   -0.1654   -1.3809 H   0  0  0  0  0  0  0  0  0  0  0  0
   -1.4412   -0.8171   -2.3265 H   0  0  0  0  0  0  0  0  0  0  0  0
   -3.7475    0.1389   -0.5492 H   0  0  0  0  0  0  0  0  0  0  0  0
   -3.8039   -0.3947   -2.2210 H   0  0  0  0  0  0  0  0  0  0  0  0
   -3.4841   -1.5761   -0.9439 H   0  0  0  0  0  0  0  0  0  0  0  0
   -1.8555    0.9069    1.0810 H   0  0  0  0  0  0  0  0  0  0  0  0
   -2.4888   -0.7266    1.3134 H   0  0  0  0  0  0  0  0  0  0  0  0
   -0.9164   -0.3044    1.9664 H   0  0  0  0  0  0  0  0  0  0  0  0
   -1.4586   -2.6508    0.3163 H   0  0  0  0  0  0  0  0  0  0  0  0
    0.1572   -2.2016    0.7836 H   0  0  0  0  0  0  0  0  0  0  0  0
    0.4813   -2.2051   -1.9630 H   0  0  0  0  0  0  0  0  0  0  0  0
    1.8900   -3.4129   -0.3248 H   0  0  0  0  0  0  0  0  0  0  0  0
    1.4445   -4.4655   -1.6710 H   0  0  0  0  0  0  0  0  0  0  0  0
    0.6246   -4.6344   -0.1082 H   0  0  0  0  0  0  0  0  0  0  0  0
   -0.6979   -4.1674   -2.8845 H   0  0  0  0  0  0  0  0  0  0  0  0
   -1.5892   -4.3919   -1.3727 H   0  0  0  0  0  0  0  0  0  0  0  0
   -1.8919   -2.9733   -2.3806 H   0  0  0  0  0  0  0  0  0  0  0  0
    2.4818   -1.1531    0.2964 H   0  0  0  0  0  0  0  0  0  0  0  0
    4.0340   -0.6124    2.1219 H   0  0  0  0  0  0  0  0  0  0  0  0
  1  2  1  0
  2  3  1  0
  3  4  2  0
  4  5  1  0
  5  6  2  0
  6  7  1  0
  7  8  1  0
  8  9  1  0
  9 10  2  0
  9 11  1  0
 11 12  1  0
 11 13  1  0
 13 14  1  0
 13 15  1  0
 15 16  1  0
 16 17  1  0
 16 18  1  0
  6 19  1  0
 19 20  2  0
 20  3  1  0
 13  7  1  0
  1 21  1  0
  1 22  1  0
  1 23  1  0
  4 24  1  0
  5 25  1  0
  7 26  1  0
 11 27  1  0
 12 28  1  0
 12 29  1  0
 12 30  1  0
 14 31  1  0
 14 32  1  0
 14 33  1  0
 15 34  1  0
 15 35  1  0
 16 36  1  0
 17 37  1  0
 17 38  1  0
 17 39  1  0
 18 40  1  0
 18 41  1  0
 18 42  1  0
 19 43  1  0
 20 44  1  0
M  END
>  <energy_abs>  (34) 
43.854285932811806

>  <SMILES>  (34) 
COc1ccc(C2OC(=O)C(C)C2(C)CC(C)C)cc1

>  <cluster_no>  (34) 
34

>  <ccdc_id>  (34) 
33

>  <initial_conformation_id>  (34) 
287

>  <minimize_method>  (34) 
MMFF

$$$$
