
     RDKit          3D

 44 45  0  0  0  0  0  0  0  0999 V2000
    4.8504    1.3082    3.8741 C   0  0  0  0  0  0  0  0  0  0  0  0
    4.4255    1.7022    2.5757 O   0  0  0  0  0  0  0  0  0  0  0  0
    3.1476    1.3745    2.2172 C   0  0  0  0  0  0  0  0  0  0  0  0
    2.7653    1.8135    0.9493 C   0  0  0  0  0  0  0  0  0  0  0  0
    1.4857    1.5467    0.4523 C   0  0  0  0  0  0  0  0  0  0  0  0
    0.5579    0.8278    1.2184 C   0  0  0  0  0  0  0  0  0  0  0  0
   -0.8373    0.4900    0.7168 C   0  0  0  0  0  0  0  0  0  0  0  0
   -1.3554    1.5995   -0.0258 O   0  0  0  0  0  0  0  0  0  0  0  0
   -1.3399    1.3169   -1.3538 C   0  0  0  0  0  0  0  0  0  0  0  0
   -1.6065    2.1367   -2.2188 O   0  0  0  0  0  0  0  0  0  0  0  0
   -0.9334   -0.1185   -1.5994 C   0  0  0  0  0  0  0  0  0  0  0  0
   -1.8273   -0.6840   -2.7001 C   0  0  0  0  0  0  0  0  0  0  0  0
   -1.0371   -0.7623   -0.2035 C   0  0  0  0  0  0  0  0  0  0  0  0
   -2.4635   -1.2900    0.0906 C   0  0  0  0  0  0  0  0  0  0  0  0
    0.0289   -1.8603    0.1093 C   0  0  0  0  0  0  0  0  0  0  0  0
    0.2115   -3.1605   -0.7070 C   0  0  0  0  0  0  0  0  0  0  0  0
    0.9323   -2.9510   -2.0389 C   0  0  0  0  0  0  0  0  0  0  0  0
   -1.0296   -4.0273   -0.8710 C   0  0  0  0  0  0  0  0  0  0  0  0
    0.9516    0.3942    2.4962 C   0  0  0  0  0  0  0  0  0  0  0  0
    2.2337    0.6632    2.9909 C   0  0  0  0  0  0  0  0  0  0  0  0
    4.2362    1.7766    4.6503 H   0  0  0  0  0  0  0  0  0  0  0  0
    5.8792    1.6557    4.0091 H   0  0  0  0  0  0  0  0  0  0  0  0
    4.8515    0.2178    3.9746 H   0  0  0  0  0  0  0  0  0  0  0  0
    3.4700    2.3760    0.3409 H   0  0  0  0  0  0  0  0  0  0  0  0
    1.2328    1.9218   -0.5361 H   0  0  0  0  0  0  0  0  0  0  0  0
   -1.4800    0.4039    1.6031 H   0  0  0  0  0  0  0  0  0  0  0  0
    0.1112   -0.1020   -1.9317 H   0  0  0  0  0  0  0  0  0  0  0  0
   -1.5720   -0.2265   -3.6631 H   0  0  0  0  0  0  0  0  0  0  0  0
   -1.7220   -1.7624   -2.8143 H   0  0  0  0  0  0  0  0  0  0  0  0
   -2.8860   -0.4638   -2.5218 H   0  0  0  0  0  0  0  0  0  0  0  0
   -2.7866   -2.0609   -0.6095 H   0  0  0  0  0  0  0  0  0  0  0  0
   -2.5208   -1.7157    1.0991 H   0  0  0  0  0  0  0  0  0  0  0  0
   -3.2076   -0.4863    0.0371 H   0  0  0  0  0  0  0  0  0  0  0  0
    1.0206   -1.3915    0.1035 H   0  0  0  0  0  0  0  0  0  0  0  0
   -0.1339   -2.1718    1.1518 H   0  0  0  0  0  0  0  0  0  0  0  0
    0.9069   -3.7643   -0.1041 H   0  0  0  0  0  0  0  0  0  0  0  0
    1.2166   -3.9162   -2.4730 H   0  0  0  0  0  0  0  0  0  0  0  0
    0.3179   -2.4347   -2.7759 H   0  0  0  0  0  0  0  0  0  0  0  0
    1.8515   -2.3722   -1.8992 H   0  0  0  0  0  0  0  0  0  0  0  0
   -0.7456   -5.0335   -1.2002 H   0  0  0  0  0  0  0  0  0  0  0  0
   -1.7151   -3.6338   -1.6236 H   0  0  0  0  0  0  0  0  0  0  0  0
   -1.5641   -4.1347    0.0781 H   0  0  0  0  0  0  0  0  0  0  0  0
    0.2592   -0.1647    3.1233 H   0  0  0  0  0  0  0  0  0  0  0  0
    2.4833    0.3027    3.9831 H   0  0  0  0  0  0  0  0  0  0  0  0
  1  2  1  0
  2  3  1  0
  3  4  2  0
  4  5  1  0
  5  6  2  0
  6  7  1  0
  7  8  1  0
  8  9  1  0
  9 10  2  0
  9 11  1  0
 11 12  1  0
 11 13  1  0
 13 14  1  0
 13 15  1  0
 15 16  1  0
 16 17  1  0
 16 18  1  0
  6 19  1  0
 19 20  2  0
 20  3  1  0
 13  7  1  0
  1 21  1  0
  1 22  1  0
  1 23  1  0
  4 24  1  0
  5 25  1  0
  7 26  1  0
 11 27  1  0
 12 28  1  0
 12 29  1  0
 12 30  1  0
 14 31  1  0
 14 32  1  0
 14 33  1  0
 15 34  1  0
 15 35  1  0
 16 36  1  0
 17 37  1  0
 17 38  1  0
 17 39  1  0
 18 40  1  0
 18 41  1  0
 18 42  1  0
 19 43  1  0
 20 44  1  0
M  END
>  <energy_abs>  (35) 
51.369848647842865

>  <SMILES>  (35) 
COc1ccc(C2OC(=O)C(C)C2(C)CC(C)C)cc1

>  <cluster_no>  (35) 
35

>  <ccdc_id>  (35) 
33

>  <initial_conformation_id>  (35) 
286

>  <minimize_method>  (35) 
MMFF

$$$$
