
     RDKit          3D

 44 45  0  0  0  0  0  0  0  0999 V2000
    4.5909    0.7652    4.1048 C   0  0  0  0  0  0  0  0  0  0  0  0
    4.2769    1.4016    2.8728 O   0  0  0  0  0  0  0  0  0  0  0  0
    3.0694    1.0963    2.3094 C   0  0  0  0  0  0  0  0  0  0  0  0
    2.1210    0.2158    2.8242 C   0  0  0  0  0  0  0  0  0  0  0  0
    0.9198   -0.0071    2.1384 C   0  0  0  0  0  0  0  0  0  0  0  0
    0.6480    0.6297    0.9178 C   0  0  0  0  0  0  0  0  0  0  0  0
   -0.6602    0.3750    0.1981 C   0  0  0  0  0  0  0  0  0  0  0  0
   -1.2059    1.6460   -0.1952 O   0  0  0  0  0  0  0  0  0  0  0  0
   -2.0024    1.4881   -1.2851 C   0  0  0  0  0  0  0  0  0  0  0  0
   -2.6567    2.3855   -1.7907 O   0  0  0  0  0  0  0  0  0  0  0  0
   -1.9829    0.0538   -1.7485 C   0  0  0  0  0  0  0  0  0  0  0  0
   -3.3088   -0.5870   -1.3473 C   0  0  0  0  0  0  0  0  0  0  0  0
   -0.6770   -0.4888   -1.0854 C   0  0  0  0  0  0  0  0  0  0  0  0
    0.4631   -0.1566   -2.0790 C   0  0  0  0  0  0  0  0  0  0  0  0
   -0.7658   -2.0226   -0.8320 C   0  0  0  0  0  0  0  0  0  0  0  0
    0.3215   -2.7796   -0.0367 C   0  0  0  0  0  0  0  0  0  0  0  0
   -0.1095   -4.2488    0.1079 C   0  0  0  0  0  0  0  0  0  0  0  0
    1.7211   -2.7401   -0.6412 C   0  0  0  0  0  0  0  0  0  0  0  0
    1.5996    1.5356    0.4280 C   0  0  0  0  0  0  0  0  0  0  0  0
    2.7983    1.7576    1.1121 C   0  0  0  0  0  0  0  0  0  0  0  0
    3.8757    1.0427    4.8862 H   0  0  0  0  0  0  0  0  0  0  0  0
    4.6446   -0.3219    3.9851 H   0  0  0  0  0  0  0  0  0  0  0  0
    5.5791    1.1145    4.4192 H   0  0  0  0  0  0  0  0  0  0  0  0
    2.2785   -0.3104    3.7597 H   0  0  0  0  0  0  0  0  0  0  0  0
    0.1922   -0.6861    2.5789 H   0  0  0  0  0  0  0  0  0  0  0  0
   -1.3711   -0.0353    0.9289 H   0  0  0  0  0  0  0  0  0  0  0  0
   -1.8966    0.0391   -2.8417 H   0  0  0  0  0  0  0  0  0  0  0  0
   -4.1504   -0.0283   -1.7729 H   0  0  0  0  0  0  0  0  0  0  0  0
   -3.3808   -1.6135   -1.7198 H   0  0  0  0  0  0  0  0  0  0  0  0
   -3.4488   -0.5961   -0.2611 H   0  0  0  0  0  0  0  0  0  0  0  0
    1.4568   -0.3027   -1.6592 H   0  0  0  0  0  0  0  0  0  0  0  0
    0.4197    0.8849   -2.4183 H   0  0  0  0  0  0  0  0  0  0  0  0
    0.3904   -0.7855   -2.9741 H   0  0  0  0  0  0  0  0  0  0  0  0
   -0.8880   -2.5185   -1.8056 H   0  0  0  0  0  0  0  0  0  0  0  0
   -1.6981   -2.2162   -0.2866 H   0  0  0  0  0  0  0  0  0  0  0  0
    0.3702   -2.3752    0.9765 H   0  0  0  0  0  0  0  0  0  0  0  0
   -1.0920   -4.3238    0.5861 H   0  0  0  0  0  0  0  0  0  0  0  0
    0.6008   -4.8050    0.7293 H   0  0  0  0  0  0  0  0  0  0  0  0
   -0.1667   -4.7434   -0.8679 H   0  0  0  0  0  0  0  0  0  0  0  0
    1.6979   -2.9178   -1.7210 H   0  0  0  0  0  0  0  0  0  0  0  0
    2.3663   -3.5033   -0.1913 H   0  0  0  0  0  0  0  0  0  0  0  0
    2.2088   -1.7827   -0.4463 H   0  0  0  0  0  0  0  0  0  0  0  0
    1.4146    2.0913   -0.4889 H   0  0  0  0  0  0  0  0  0  0  0  0
    3.5233    2.4613    0.7099 H   0  0  0  0  0  0  0  0  0  0  0  0
  1  2  1  0
  2  3  1  0
  3  4  2  0
  4  5  1  0
  5  6  2  0
  6  7  1  0
  7  8  1  0
  8  9  1  0
  9 10  2  0
  9 11  1  0
 11 12  1  0
 11 13  1  0
 13 14  1  0
 13 15  1  0
 15 16  1  0
 16 17  1  0
 16 18  1  0
  6 19  1  0
 19 20  2  0
 20  3  1  0
 13  7  1  0
  1 21  1  0
  1 22  1  0
  1 23  1  0
  4 24  1  0
  5 25  1  0
  7 26  1  0
 11 27  1  0
 12 28  1  0
 12 29  1  0
 12 30  1  0
 14 31  1  0
 14 32  1  0
 14 33  1  0
 15 34  1  0
 15 35  1  0
 16 36  1  0
 17 37  1  0
 17 38  1  0
 17 39  1  0
 18 40  1  0
 18 41  1  0
 18 42  1  0
 19 43  1  0
 20 44  1  0
M  END
>  <energy_abs>  (36) 
48.51061551508764

>  <SMILES>  (36) 
COc1ccc(C2OC(=O)C(C)C2(C)CC(C)C)cc1

>  <cluster_no>  (36) 
36

>  <ccdc_id>  (36) 
33

>  <initial_conformation_id>  (36) 
285

>  <minimize_method>  (36) 
MMFF

$$$$
