
     RDKit          3D

 44 45  0  0  0  0  0  0  0  0999 V2000
    5.1480    2.1238    2.6273 C   0  0  0  0  0  0  0  0  0  0  0  0
    4.1726    1.2485    3.1793 O   0  0  0  0  0  0  0  0  0  0  0  0
    2.9892    1.1384    2.5036 C   0  0  0  0  0  0  0  0  0  0  0  0
    2.6610    1.7785    1.3104 C   0  0  0  0  0  0  0  0  0  0  0  0
    1.4070    1.5750    0.7193 C   0  0  0  0  0  0  0  0  0  0  0  0
    0.4579    0.7270    1.3096 C   0  0  0  0  0  0  0  0  0  0  0  0
   -0.9065    0.4621    0.6940 C   0  0  0  0  0  0  0  0  0  0  0  0
   -1.3760    1.6449    0.0305 O   0  0  0  0  0  0  0  0  0  0  0  0
   -1.2886    1.4898   -1.3182 C   0  0  0  0  0  0  0  0  0  0  0  0
   -1.5318    2.3811   -2.1162 O   0  0  0  0  0  0  0  0  0  0  0  0
   -0.8202    0.0970   -1.6680 C   0  0  0  0  0  0  0  0  0  0  0  0
   -1.5481   -0.3918   -2.9151 C   0  0  0  0  0  0  0  0  0  0  0  0
   -1.0554   -0.6823   -0.3599 C   0  0  0  0  0  0  0  0  0  0  0  0
   -2.5087   -1.1997   -0.2353 C   0  0  0  0  0  0  0  0  0  0  0  0
   -0.0310   -1.8332   -0.1245 C   0  0  0  0  0  0  0  0  0  0  0  0
    0.1529   -2.9516   -1.1764 C   0  0  0  0  0  0  0  0  0  0  0  0
    1.4123   -3.7598   -0.8209 C   0  0  0  0  0  0  0  0  0  0  0  0
   -1.0245   -3.9185   -1.2832 C   0  0  0  0  0  0  0  0  0  0  0  0
    0.7990    0.0935    2.5154 C   0  0  0  0  0  0  0  0  0  0  0  0
    2.0513    0.2966    3.1010 C   0  0  0  0  0  0  0  0  0  0  0  0
    4.7776    3.1536    2.5871 H   0  0  0  0  0  0  0  0  0  0  0  0
    5.4719    1.7805    1.6392 H   0  0  0  0  0  0  0  0  0  0  0  0
    6.0210    2.1099    3.2869 H   0  0  0  0  0  0  0  0  0  0  0  0
    3.3542    2.4477    0.8113 H   0  0  0  0  0  0  0  0  0  0  0  0
    1.1868    2.1040   -0.2052 H   0  0  0  0  0  0  0  0  0  0  0  0
   -1.6020    0.2951    1.5274 H   0  0  0  0  0  0  0  0  0  0  0  0
    0.2548    0.1651   -1.8769 H   0  0  0  0  0  0  0  0  0  0  0  0
   -1.3402   -1.4408   -3.1322 H   0  0  0  0  0  0  0  0  0  0  0  0
   -1.2310    0.1909   -3.7879 H   0  0  0  0  0  0  0  0  0  0  0  0
   -2.6330   -0.2635   -2.8338 H   0  0  0  0  0  0  0  0  0  0  0  0
   -2.8025   -1.8540   -1.0552 H   0  0  0  0  0  0  0  0  0  0  0  0
   -2.6436   -1.7563    0.6992 H   0  0  0  0  0  0  0  0  0  0  0  0
   -3.2305   -0.3741   -0.2270 H   0  0  0  0  0  0  0  0  0  0  0  0
    0.9607   -1.3749   -0.0243 H   0  0  0  0  0  0  0  0  0  0  0  0
   -0.2439   -2.2985    0.8479 H   0  0  0  0  0  0  0  0  0  0  0  0
    0.3375   -2.5036   -2.1581 H   0  0  0  0  0  0  0  0  0  0  0  0
    2.2959   -3.1135   -0.7855 H   0  0  0  0  0  0  0  0  0  0  0  0
    1.6040   -4.5350   -1.5707 H   0  0  0  0  0  0  0  0  0  0  0  0
    1.3082   -4.2480    0.1543 H   0  0  0  0  0  0  0  0  0  0  0  0
   -0.7389   -4.8280   -1.8239 H   0  0  0  0  0  0  0  0  0  0  0  0
   -1.3889   -4.2179   -0.2952 H   0  0  0  0  0  0  0  0  0  0  0  0
   -1.8517   -3.4827   -1.8454 H   0  0  0  0  0  0  0  0  0  0  0  0
    0.0927   -0.5693    3.0113 H   0  0  0  0  0  0  0  0  0  0  0  0
    2.2973   -0.2046    4.0342 H   0  0  0  0  0  0  0  0  0  0  0  0
  1  2  1  0
  2  3  1  0
  3  4  2  0
  4  5  1  0
  5  6  2  0
  6  7  1  0
  7  8  1  0
  8  9  1  0
  9 10  2  0
  9 11  1  0
 11 12  1  0
 11 13  1  0
 13 14  1  0
 13 15  1  0
 15 16  1  0
 16 17  1  0
 16 18  1  0
  6 19  1  0
 19 20  2  0
 20  3  1  0
 13  7  1  0
  1 21  1  0
  1 22  1  0
  1 23  1  0
  4 24  1  0
  5 25  1  0
  7 26  1  0
 11 27  1  0
 12 28  1  0
 12 29  1  0
 12 30  1  0
 14 31  1  0
 14 32  1  0
 14 33  1  0
 15 34  1  0
 15 35  1  0
 16 36  1  0
 17 37  1  0
 17 38  1  0
 17 39  1  0
 18 40  1  0
 18 41  1  0
 18 42  1  0
 19 43  1  0
 20 44  1  0
M  END
>  <energy_abs>  (37) 
47.13286002071165

>  <SMILES>  (37) 
COc1ccc(C2OC(=O)C(C)C2(C)CC(C)C)cc1

>  <cluster_no>  (37) 
37

>  <ccdc_id>  (37) 
33

>  <initial_conformation_id>  (37) 
284

>  <minimize_method>  (37) 
MMFF

$$$$
