%NProcShared=1
%Mem=10GB

#p B3LYP/6-31G* opt freq

test

0  1
C           4.37470         1.17160         4.54090
O           4.31500         1.41400         3.14130
C           3.10280         1.23790         2.53400
C           1.92430         0.82840         3.15460
C           0.74720         0.68600         2.40910
C           0.72680         0.94650         1.03020
C          -0.55810         0.77380         0.24530
O          -0.53870         1.56100        -0.95110
C          -1.41290         1.02490        -1.84350
O          -1.71880         1.55150        -2.90110
C          -1.95500        -0.28760        -1.33230
C          -3.40390        -0.08740        -0.89960
C          -0.94470        -0.65880        -0.21910
C          -1.55090        -1.45610         0.94520
C           0.28060        -1.42600        -0.83160
C           0.16550        -2.95630        -1.05390
C          -0.91940        -3.37850        -2.04060
C           1.51830        -3.49630        -1.53900
C           1.91710         1.36510         0.41890
C           3.09060         1.50570         1.16480
H           3.71740         1.85490         5.08870
H           5.40090         1.36200         4.86970
H           4.14000         0.12700         4.77080
H           1.88380         0.61330         4.21710
H          -0.15890         0.37250         2.92350
H          -1.35840         1.20700         0.86290
H          -1.92310        -0.99390        -2.16340
H          -3.84620        -1.02740        -0.55570
H          -4.00900         0.27280        -1.73950
H          -3.49600         0.65410        -0.09910
H          -2.27960        -0.86440         1.51000
H          -0.77730        -1.77420         1.65230
H          -2.06790        -2.35430         0.59340
H           0.58090        -0.94910        -1.77430
H           1.13330        -1.30180        -0.15360
H          -0.04150        -3.44060        -0.09210
H          -1.91880        -3.15650        -1.65690
H          -0.79400        -2.88050        -3.00760
H          -0.88330        -4.45940        -2.21680
H           1.79490        -3.06260        -2.50620
H           2.31240        -3.26240        -0.82190
H           1.48600        -4.58520        -1.65220
H           1.94630         1.58530        -0.64660
H           4.00380         1.83020         0.67160

