
     RDKit          3D

 44 45  0  0  0  0  0  0  0  0999 V2000
    4.3747    1.1716    4.5409 C   0  0  0  0  0  0  0  0  0  0  0  0
    4.3150    1.4140    3.1413 O   0  0  0  0  0  0  0  0  0  0  0  0
    3.1028    1.2379    2.5340 C   0  0  0  0  0  0  0  0  0  0  0  0
    1.9243    0.8284    3.1546 C   0  0  0  0  0  0  0  0  0  0  0  0
    0.7472    0.6860    2.4091 C   0  0  0  0  0  0  0  0  0  0  0  0
    0.7268    0.9465    1.0302 C   0  0  0  0  0  0  0  0  0  0  0  0
   -0.5581    0.7738    0.2453 C   0  0  0  0  0  0  0  0  0  0  0  0
   -0.5387    1.5610   -0.9511 O   0  0  0  0  0  0  0  0  0  0  0  0
   -1.4129    1.0249   -1.8435 C   0  0  0  0  0  0  0  0  0  0  0  0
   -1.7188    1.5515   -2.9011 O   0  0  0  0  0  0  0  0  0  0  0  0
   -1.9550   -0.2876   -1.3323 C   0  0  0  0  0  0  0  0  0  0  0  0
   -3.4039   -0.0874   -0.8996 C   0  0  0  0  0  0  0  0  0  0  0  0
   -0.9447   -0.6588   -0.2191 C   0  0  0  0  0  0  0  0  0  0  0  0
   -1.5509   -1.4561    0.9452 C   0  0  0  0  0  0  0  0  0  0  0  0
    0.2806   -1.4260   -0.8316 C   0  0  0  0  0  0  0  0  0  0  0  0
    0.1655   -2.9563   -1.0539 C   0  0  0  0  0  0  0  0  0  0  0  0
   -0.9194   -3.3785   -2.0406 C   0  0  0  0  0  0  0  0  0  0  0  0
    1.5183   -3.4963   -1.5390 C   0  0  0  0  0  0  0  0  0  0  0  0
    1.9171    1.3651    0.4189 C   0  0  0  0  0  0  0  0  0  0  0  0
    3.0906    1.5057    1.1648 C   0  0  0  0  0  0  0  0  0  0  0  0
    3.7174    1.8549    5.0887 H   0  0  0  0  0  0  0  0  0  0  0  0
    5.4009    1.3620    4.8697 H   0  0  0  0  0  0  0  0  0  0  0  0
    4.1400    0.1270    4.7708 H   0  0  0  0  0  0  0  0  0  0  0  0
    1.8838    0.6133    4.2171 H   0  0  0  0  0  0  0  0  0  0  0  0
   -0.1589    0.3725    2.9235 H   0  0  0  0  0  0  0  0  0  0  0  0
   -1.3584    1.2070    0.8629 H   0  0  0  0  0  0  0  0  0  0  0  0
   -1.9231   -0.9939   -2.1634 H   0  0  0  0  0  0  0  0  0  0  0  0
   -3.8462   -1.0274   -0.5557 H   0  0  0  0  0  0  0  0  0  0  0  0
   -4.0090    0.2728   -1.7395 H   0  0  0  0  0  0  0  0  0  0  0  0
   -3.4960    0.6541   -0.0991 H   0  0  0  0  0  0  0  0  0  0  0  0
   -2.2796   -0.8644    1.5100 H   0  0  0  0  0  0  0  0  0  0  0  0
   -0.7773   -1.7742    1.6523 H   0  0  0  0  0  0  0  0  0  0  0  0
   -2.0679   -2.3543    0.5934 H   0  0  0  0  0  0  0  0  0  0  0  0
    0.5809   -0.9491   -1.7743 H   0  0  0  0  0  0  0  0  0  0  0  0
    1.1333   -1.3018   -0.1536 H   0  0  0  0  0  0  0  0  0  0  0  0
   -0.0415   -3.4406   -0.0921 H   0  0  0  0  0  0  0  0  0  0  0  0
   -1.9188   -3.1565   -1.6569 H   0  0  0  0  0  0  0  0  0  0  0  0
   -0.7940   -2.8805   -3.0076 H   0  0  0  0  0  0  0  0  0  0  0  0
   -0.8833   -4.4594   -2.2168 H   0  0  0  0  0  0  0  0  0  0  0  0
    1.7949   -3.0626   -2.5062 H   0  0  0  0  0  0  0  0  0  0  0  0
    2.3124   -3.2624   -0.8219 H   0  0  0  0  0  0  0  0  0  0  0  0
    1.4860   -4.5852   -1.6522 H   0  0  0  0  0  0  0  0  0  0  0  0
    1.9463    1.5853   -0.6466 H   0  0  0  0  0  0  0  0  0  0  0  0
    4.0038    1.8302    0.6716 H   0  0  0  0  0  0  0  0  0  0  0  0
  1  2  1  0
  2  3  1  0
  3  4  2  0
  4  5  1  0
  5  6  2  0
  6  7  1  0
  7  8  1  0
  8  9  1  0
  9 10  2  0
  9 11  1  0
 11 12  1  0
 11 13  1  0
 13 14  1  0
 13 15  1  0
 15 16  1  0
 16 17  1  0
 16 18  1  0
  6 19  1  0
 19 20  2  0
 20  3  1  0
 13  7  1  0
  1 21  1  0
  1 22  1  0
  1 23  1  0
  4 24  1  0
  5 25  1  0
  7 26  1  0
 11 27  1  0
 12 28  1  0
 12 29  1  0
 12 30  1  0
 14 31  1  0
 14 32  1  0
 14 33  1  0
 15 34  1  0
 15 35  1  0
 16 36  1  0
 17 37  1  0
 17 38  1  0
 17 39  1  0
 18 40  1  0
 18 41  1  0
 18 42  1  0
 19 43  1  0
 20 44  1  0
M  END
>  <energy_abs>  (38) 
44.605595129141015

>  <SMILES>  (38) 
COc1ccc(C2OC(=O)C(C)C2(C)CC(C)C)cc1

>  <cluster_no>  (38) 
38

>  <ccdc_id>  (38) 
33

>  <initial_conformation_id>  (38) 
282

>  <minimize_method>  (38) 
MMFF

$$$$
