
     RDKit          3D

 44 45  0  0  0  0  0  0  0  0999 V2000
    4.1579    3.4806    3.4990 C   0  0  0  0  0  0  0  0  0  0  0  0
    3.9591    2.0724    3.4924 O   0  0  0  0  0  0  0  0  0  0  0  0
    2.8794    1.6051    2.7962 C   0  0  0  0  0  0  0  0  0  0  0  0
    1.9655    2.3759    2.0814 C   0  0  0  0  0  0  0  0  0  0  0  0
    0.8991    1.7656    1.4077 C   0  0  0  0  0  0  0  0  0  0  0  0
    0.7300    0.3732    1.4271 C   0  0  0  0  0  0  0  0  0  0  0  0
   -0.4136   -0.3276    0.7128 C   0  0  0  0  0  0  0  0  0  0  0  0
   -1.5065    0.5799    0.5037 O   0  0  0  0  0  0  0  0  0  0  0  0
   -1.6003    0.9172   -0.8097 C   0  0  0  0  0  0  0  0  0  0  0  0
   -2.3703    1.7627   -1.2377 O   0  0  0  0  0  0  0  0  0  0  0  0
   -0.6251    0.1302   -1.6452 C   0  0  0  0  0  0  0  0  0  0  0  0
    0.4417    1.0632   -2.2049 C   0  0  0  0  0  0  0  0  0  0  0  0
   -0.1533   -0.9757   -0.6767 C   0  0  0  0  0  0  0  0  0  0  0  0
    1.2958   -1.4298   -0.8992 C   0  0  0  0  0  0  0  0  0  0  0  0
   -1.1165   -2.2161   -0.7952 C   0  0  0  0  0  0  0  0  0  0  0  0
   -1.0514   -3.0127   -2.1223 C   0  0  0  0  0  0  0  0  0  0  0  0
   -0.2287   -4.2961   -1.9697 C   0  0  0  0  0  0  0  0  0  0  0  0
   -2.4635   -3.3806   -2.5896 C   0  0  0  0  0  0  0  0  0  0  0  0
    1.6485   -0.3892    2.1662 C   0  0  0  0  0  0  0  0  0  0  0  0
    2.7124    0.2212    2.8362 C   0  0  0  0  0  0  0  0  0  0  0  0
    3.3137    3.9965    3.9683 H   0  0  0  0  0  0  0  0  0  0  0  0
    4.3403    3.8581    2.4875 H   0  0  0  0  0  0  0  0  0  0  0  0
    5.0497    3.6893    4.0978 H   0  0  0  0  0  0  0  0  0  0  0  0
    2.0456    3.4567    2.0294 H   0  0  0  0  0  0  0  0  0  0  0  0
    0.1975    2.4054    0.8756 H   0  0  0  0  0  0  0  0  0  0  0  0
   -0.7927   -1.0814    1.4154 H   0  0  0  0  0  0  0  0  0  0  0  0
   -1.1876   -0.2953   -2.4831 H   0  0  0  0  0  0  0  0  0  0  0  0
   -0.0190    1.8669   -2.7904 H   0  0  0  0  0  0  0  0  0  0  0  0
    1.0328    1.5405   -1.4194 H   0  0  0  0  0  0  0  0  0  0  0  0
    1.1240    0.5244   -2.8699 H   0  0  0  0  0  0  0  0  0  0  0  0
    1.4504   -1.7894   -1.9217 H   0  0  0  0  0  0  0  0  0  0  0  0
    2.0172   -0.6210   -0.7468 H   0  0  0  0  0  0  0  0  0  0  0  0
    1.5626   -2.2428   -0.2154 H   0  0  0  0  0  0  0  0  0  0  0  0
   -2.1456   -1.8647   -0.6371 H   0  0  0  0  0  0  0  0  0  0  0  0
   -0.9140   -2.9003    0.0405 H   0  0  0  0  0  0  0  0  0  0  0  0
   -0.5938   -2.4069   -2.9119 H   0  0  0  0  0  0  0  0  0  0  0  0
   -0.1783   -4.8370   -2.9209 H   0  0  0  0  0  0  0  0  0  0  0  0
    0.7972   -4.0836   -1.6582 H   0  0  0  0  0  0  0  0  0  0  0  0
   -0.6737   -4.9671   -1.2268 H   0  0  0  0  0  0  0  0  0  0  0  0
   -2.9820   -3.9947   -1.8454 H   0  0  0  0  0  0  0  0  0  0  0  0
   -2.4292   -3.9426   -3.5291 H   0  0  0  0  0  0  0  0  0  0  0  0
   -3.0609   -2.4793   -2.7640 H   0  0  0  0  0  0  0  0  0  0  0  0
    1.5453   -1.4706    2.2295 H   0  0  0  0  0  0  0  0  0  0  0  0
    3.4154   -0.3883    3.3990 H   0  0  0  0  0  0  0  0  0  0  0  0
  1  2  1  0
  2  3  1  0
  3  4  2  0
  4  5  1  0
  5  6  2  0
  6  7  1  0
  7  8  1  0
  8  9  1  0
  9 10  2  0
  9 11  1  0
 11 12  1  0
 11 13  1  0
 13 14  1  0
 13 15  1  0
 15 16  1  0
 16 17  1  0
 16 18  1  0
  6 19  1  0
 19 20  2  0
 20  3  1  0
 13  7  1  0
  1 21  1  0
  1 22  1  0
  1 23  1  0
  4 24  1  0
  5 25  1  0
  7 26  1  0
 11 27  1  0
 12 28  1  0
 12 29  1  0
 12 30  1  0
 14 31  1  0
 14 32  1  0
 14 33  1  0
 15 34  1  0
 15 35  1  0
 16 36  1  0
 17 37  1  0
 17 38  1  0
 17 39  1  0
 18 40  1  0
 18 41  1  0
 18 42  1  0
 19 43  1  0
 20 44  1  0
M  END
>  <energy_abs>  (39) 
46.56636491170072

>  <SMILES>  (39) 
COc1ccc(C2OC(=O)C(C)C2(C)CC(C)C)cc1

>  <cluster_no>  (39) 
39

>  <ccdc_id>  (39) 
33

>  <initial_conformation_id>  (39) 
281

>  <minimize_method>  (39) 
MMFF

$$$$
