
     RDKit          3D

 44 45  0  0  0  0  0  0  0  0999 V2000
    5.0952    3.4515    1.7428 C   0  0  0  0  0  0  0  0  0  0  0  0
    4.9521    2.1155    1.2770 O   0  0  0  0  0  0  0  0  0  0  0  0
    3.6802    1.6182    1.2118 C   0  0  0  0  0  0  0  0  0  0  0  0
    2.5121    2.3021    1.5408 C   0  0  0  0  0  0  0  0  0  0  0  0
    1.2682    1.6691    1.4256 C   0  0  0  0  0  0  0  0  0  0  0  0
    1.1669    0.3431    0.9763 C   0  0  0  0  0  0  0  0  0  0  0  0
   -0.1717   -0.3567    0.8373 C   0  0  0  0  0  0  0  0  0  0  0  0
   -1.1470    0.2416    1.7117 O   0  0  0  0  0  0  0  0  0  0  0  0
   -2.3947    0.0634    1.1902 C   0  0  0  0  0  0  0  0  0  0  0  0
   -3.4223    0.4155    1.7446 O   0  0  0  0  0  0  0  0  0  0  0  0
   -2.2977   -0.6554   -0.1328 C   0  0  0  0  0  0  0  0  0  0  0  0
   -3.3916   -0.2427   -1.1046 C   0  0  0  0  0  0  0  0  0  0  0  0
   -0.8474   -0.3462   -0.5553 C   0  0  0  0  0  0  0  0  0  0  0  0
   -0.7447    1.0691   -1.1960 C   0  0  0  0  0  0  0  0  0  0  0  0
   -0.2572   -1.3490   -1.5893 C   0  0  0  0  0  0  0  0  0  0  0  0
   -0.6178   -2.8519   -1.5256 C   0  0  0  0  0  0  0  0  0  0  0  0
   -0.0129   -3.5606   -2.7471 C   0  0  0  0  0  0  0  0  0  0  0  0
   -0.1505   -3.5684   -0.2618 C   0  0  0  0  0  0  0  0  0  0  0  0
    2.3504   -0.3363    0.6563 C   0  0  0  0  0  0  0  0  0  0  0  0
    3.5909    0.2976    0.7709 C   0  0  0  0  0  0  0  0  0  0  0  0
    6.1626    3.6926    1.7434 H   0  0  0  0  0  0  0  0  0  0  0  0
    4.7304    3.5531    2.7703 H   0  0  0  0  0  0  0  0  0  0  0  0
    4.5948    4.1586    1.0730 H   0  0  0  0  0  0  0  0  0  0  0  0
    2.5285    3.3281    1.8929 H   0  0  0  0  0  0  0  0  0  0  0  0
    0.3737    2.2287    1.6947 H   0  0  0  0  0  0  0  0  0  0  0  0
   -0.0365   -1.3714    1.2207 H   0  0  0  0  0  0  0  0  0  0  0  0
   -2.4231   -1.7171    0.1058 H   0  0  0  0  0  0  0  0  0  0  0  0
   -3.4767    0.8452   -1.1948 H   0  0  0  0  0  0  0  0  0  0  0  0
   -3.2184   -0.6677   -2.0980 H   0  0  0  0  0  0  0  0  0  0  0  0
   -4.3647   -0.6030   -0.7522 H   0  0  0  0  0  0  0  0  0  0  0  0
   -1.3081    1.1269   -2.1341 H   0  0  0  0  0  0  0  0  0  0  0  0
   -1.1305    1.8525   -0.5349 H   0  0  0  0  0  0  0  0  0  0  0  0
    0.2931    1.3184   -1.4441 H   0  0  0  0  0  0  0  0  0  0  0  0
    0.8348   -1.2464   -1.6035 H   0  0  0  0  0  0  0  0  0  0  0  0
   -0.5824   -1.0119   -2.5847 H   0  0  0  0  0  0  0  0  0  0  0  0
   -1.7055   -2.9635   -1.6059 H   0  0  0  0  0  0  0  0  0  0  0  0
   -0.2984   -4.6180   -2.7662 H   0  0  0  0  0  0  0  0  0  0  0  0
    1.0810   -3.5046   -2.7371 H   0  0  0  0  0  0  0  0  0  0  0  0
   -0.3685   -3.1071   -3.6785 H   0  0  0  0  0  0  0  0  0  0  0  0
    0.9075   -3.3753   -0.0600 H   0  0  0  0  0  0  0  0  0  0  0  0
   -0.2782   -4.6525   -0.3588 H   0  0  0  0  0  0  0  0  0  0  0  0
   -0.7369   -3.2676    0.6093 H   0  0  0  0  0  0  0  0  0  0  0  0
    2.3249   -1.3694    0.3189 H   0  0  0  0  0  0  0  0  0  0  0  0
    4.4983   -0.2455    0.5173 H   0  0  0  0  0  0  0  0  0  0  0  0
  1  2  1  0
  2  3  1  0
  3  4  2  0
  4  5  1  0
  5  6  2  0
  6  7  1  0
  7  8  1  0
  8  9  1  0
  9 10  2  0
  9 11  1  0
 11 12  1  0
 11 13  1  0
 13 14  1  0
 13 15  1  0
 15 16  1  0
 16 17  1  0
 16 18  1  0
  6 19  1  0
 19 20  2  0
 20  3  1  0
 13  7  1  0
  1 21  1  0
  1 22  1  0
  1 23  1  0
  4 24  1  0
  5 25  1  0
  7 26  1  0
 11 27  1  0
 12 28  1  0
 12 29  1  0
 12 30  1  0
 14 31  1  0
 14 32  1  0
 14 33  1  0
 15 34  1  0
 15 35  1  0
 16 36  1  0
 17 37  1  0
 17 38  1  0
 17 39  1  0
 18 40  1  0
 18 41  1  0
 18 42  1  0
 19 43  1  0
 20 44  1  0
M  END
>  <energy_abs>  (4) 
44.54444482507678

>  <SMILES>  (4) 
COc1ccc(C2OC(=O)C(C)C2(C)CC(C)C)cc1

>  <cluster_no>  (4) 
4

>  <ccdc_id>  (4) 
33

>  <initial_conformation_id>  (4) 
214

>  <minimize_method>  (4) 
MMFF

$$$$
