#Put Keywords Here, check Charge and Multiplicity.

 

0  1
C           4.12630         2.63950         4.46110
O           3.88870         1.34190         3.93000
C           2.98990         1.25170         2.90460
C           2.31340         2.30890         2.30780
C           1.41590         2.06620         1.25910
C           1.15410         0.76460         0.78530
C           0.19880         0.58270        -0.38930
O          -0.81550         1.60560        -0.29840
C          -1.95200         1.20570        -0.92260
O          -2.94780         1.90000        -1.04430
C          -1.77880        -0.18200        -1.47590
C          -1.54600        -0.03760        -2.97850
C          -0.61060        -0.73030        -0.61000
C          -1.21010        -1.24470         0.72450
C           0.25090        -1.81950        -1.31860
C          -0.24220        -3.28560        -1.28270
C          -1.54620        -3.52500        -2.03930
C           0.84460        -4.20170        -1.86170
C           1.86450        -0.28100         1.38640
C           2.76250        -0.04010         2.43490
H           4.84830         2.53940         5.27740
H           4.56660         3.29970         3.70660
H           3.20990         3.07020         4.87810
H           2.45740         3.33600         2.62570
H           0.91280         2.92300         0.81080
H           0.78810         0.80790        -1.28950
H          -2.70300        -0.74110        -1.29620
H          -2.37770         0.50270        -3.44570
H          -0.63470         0.52760        -3.20150
H          -1.47800        -1.00870        -3.47290
H          -0.46210        -1.74000         1.34900
H          -1.64710        -0.43330         1.31740
H          -2.00850        -1.97360         0.54870
H           1.24800        -1.81760        -0.86760
H           0.44280        -1.53280        -2.35930
H          -0.38850        -3.59020        -0.24000
H          -2.37410        -2.95430        -1.61460
H          -1.83010        -4.58230        -1.98810
H          -1.44780        -3.26360        -3.09730
H           1.05160        -3.95950        -2.90980
H           1.77900        -4.10260        -1.29900
H           0.53760        -5.25180        -1.81020
H           1.74680        -1.31160         1.07260
H           3.29240        -0.87470         2.88880

