
     RDKit          3D

 44 45  0  0  0  0  0  0  0  0999 V2000
    4.1263    2.6395    4.4611 C   0  0  0  0  0  0  0  0  0  0  0  0
    3.8887    1.3419    3.9300 O   0  0  0  0  0  0  0  0  0  0  0  0
    2.9899    1.2517    2.9046 C   0  0  0  0  0  0  0  0  0  0  0  0
    2.3134    2.3089    2.3078 C   0  0  0  0  0  0  0  0  0  0  0  0
    1.4159    2.0662    1.2591 C   0  0  0  0  0  0  0  0  0  0  0  0
    1.1541    0.7646    0.7853 C   0  0  0  0  0  0  0  0  0  0  0  0
    0.1988    0.5827   -0.3893 C   0  0  0  0  0  0  0  0  0  0  0  0
   -0.8155    1.6056   -0.2984 O   0  0  0  0  0  0  0  0  0  0  0  0
   -1.9520    1.2057   -0.9226 C   0  0  0  0  0  0  0  0  0  0  0  0
   -2.9478    1.9000   -1.0443 O   0  0  0  0  0  0  0  0  0  0  0  0
   -1.7788   -0.1820   -1.4759 C   0  0  0  0  0  0  0  0  0  0  0  0
   -1.5460   -0.0376   -2.9785 C   0  0  0  0  0  0  0  0  0  0  0  0
   -0.6106   -0.7303   -0.6100 C   0  0  0  0  0  0  0  0  0  0  0  0
   -1.2101   -1.2447    0.7245 C   0  0  0  0  0  0  0  0  0  0  0  0
    0.2509   -1.8195   -1.3186 C   0  0  0  0  0  0  0  0  0  0  0  0
   -0.2422   -3.2856   -1.2827 C   0  0  0  0  0  0  0  0  0  0  0  0
   -1.5462   -3.5250   -2.0393 C   0  0  0  0  0  0  0  0  0  0  0  0
    0.8446   -4.2017   -1.8617 C   0  0  0  0  0  0  0  0  0  0  0  0
    1.8645   -0.2810    1.3864 C   0  0  0  0  0  0  0  0  0  0  0  0
    2.7625   -0.0401    2.4349 C   0  0  0  0  0  0  0  0  0  0  0  0
    4.8483    2.5394    5.2774 H   0  0  0  0  0  0  0  0  0  0  0  0
    4.5666    3.2997    3.7066 H   0  0  0  0  0  0  0  0  0  0  0  0
    3.2099    3.0702    4.8781 H   0  0  0  0  0  0  0  0  0  0  0  0
    2.4574    3.3360    2.6257 H   0  0  0  0  0  0  0  0  0  0  0  0
    0.9128    2.9230    0.8108 H   0  0  0  0  0  0  0  0  0  0  0  0
    0.7881    0.8079   -1.2895 H   0  0  0  0  0  0  0  0  0  0  0  0
   -2.7030   -0.7411   -1.2962 H   0  0  0  0  0  0  0  0  0  0  0  0
   -2.3777    0.5027   -3.4457 H   0  0  0  0  0  0  0  0  0  0  0  0
   -0.6347    0.5276   -3.2015 H   0  0  0  0  0  0  0  0  0  0  0  0
   -1.4780   -1.0087   -3.4729 H   0  0  0  0  0  0  0  0  0  0  0  0
   -0.4621   -1.7400    1.3490 H   0  0  0  0  0  0  0  0  0  0  0  0
   -1.6471   -0.4333    1.3174 H   0  0  0  0  0  0  0  0  0  0  0  0
   -2.0085   -1.9736    0.5487 H   0  0  0  0  0  0  0  0  0  0  0  0
    1.2480   -1.8176   -0.8676 H   0  0  0  0  0  0  0  0  0  0  0  0
    0.4428   -1.5328   -2.3593 H   0  0  0  0  0  0  0  0  0  0  0  0
   -0.3885   -3.5902   -0.2400 H   0  0  0  0  0  0  0  0  0  0  0  0
   -2.3741   -2.9543   -1.6146 H   0  0  0  0  0  0  0  0  0  0  0  0
   -1.8301   -4.5823   -1.9881 H   0  0  0  0  0  0  0  0  0  0  0  0
   -1.4478   -3.2636   -3.0973 H   0  0  0  0  0  0  0  0  0  0  0  0
    1.0516   -3.9595   -2.9098 H   0  0  0  0  0  0  0  0  0  0  0  0
    1.7790   -4.1026   -1.2990 H   0  0  0  0  0  0  0  0  0  0  0  0
    0.5376   -5.2518   -1.8102 H   0  0  0  0  0  0  0  0  0  0  0  0
    1.7468   -1.3116    1.0726 H   0  0  0  0  0  0  0  0  0  0  0  0
    3.2924   -0.8747    2.8888 H   0  0  0  0  0  0  0  0  0  0  0  0
  1  2  1  0
  2  3  1  0
  3  4  2  0
  4  5  1  0
  5  6  2  0
  6  7  1  0
  7  8  1  0
  8  9  1  0
  9 10  2  0
  9 11  1  0
 11 12  1  0
 11 13  1  0
 13 14  1  0
 13 15  1  0
 15 16  1  0
 16 17  1  0
 16 18  1  0
  6 19  1  0
 19 20  2  0
 20  3  1  0
 13  7  1  0
  1 21  1  0
  1 22  1  0
  1 23  1  0
  4 24  1  0
  5 25  1  0
  7 26  1  0
 11 27  1  0
 12 28  1  0
 12 29  1  0
 12 30  1  0
 14 31  1  0
 14 32  1  0
 14 33  1  0
 15 34  1  0
 15 35  1  0
 16 36  1  0
 17 37  1  0
 17 38  1  0
 17 39  1  0
 18 40  1  0
 18 41  1  0
 18 42  1  0
 19 43  1  0
 20 44  1  0
M  END
>  <energy_abs>  (40) 
47.469657841289504

>  <SMILES>  (40) 
COc1ccc(C2OC(=O)C(C)C2(C)CC(C)C)cc1

>  <cluster_no>  (40) 
40

>  <ccdc_id>  (40) 
33

>  <initial_conformation_id>  (40) 
280

>  <minimize_method>  (40) 
MMFF

$$$$
