
     RDKit          3D

 44 45  0  0  0  0  0  0  0  0999 V2000
    4.3756    0.6255    4.3918 C   0  0  0  0  0  0  0  0  0  0  0  0
    4.1155    1.3014    3.1683 O   0  0  0  0  0  0  0  0  0  0  0  0
    2.9373    1.0099    2.5393 C   0  0  0  0  0  0  0  0  0  0  0  0
    1.9705    0.1097    2.9804 C   0  0  0  0  0  0  0  0  0  0  0  0
    0.8038   -0.0955    2.2322 C   0  0  0  0  0  0  0  0  0  0  0  0
    0.5860    0.5787    1.0209 C   0  0  0  0  0  0  0  0  0  0  0  0
   -0.6853    0.3433    0.2319 C   0  0  0  0  0  0  0  0  0  0  0  0
   -1.2236    1.6296   -0.1286 O   0  0  0  0  0  0  0  0  0  0  0  0
   -1.9834    1.5099   -1.2513 C   0  0  0  0  0  0  0  0  0  0  0  0
   -2.6085    2.4274   -1.7558 O   0  0  0  0  0  0  0  0  0  0  0  0
   -1.9571    0.0822   -1.7298 C   0  0  0  0  0  0  0  0  0  0  0  0
   -2.0902   -0.0267   -3.2421 C   0  0  0  0  0  0  0  0  0  0  0  0
   -0.6422   -0.4602   -1.0932 C   0  0  0  0  0  0  0  0  0  0  0  0
    0.5567   -0.1087   -2.0009 C   0  0  0  0  0  0  0  0  0  0  0  0
   -0.7869   -2.0029   -0.9272 C   0  0  0  0  0  0  0  0  0  0  0  0
    0.1679   -2.7999   -0.0145 C   0  0  0  0  0  0  0  0  0  0  0  0
   -0.2857   -4.2682    0.0150 C   0  0  0  0  0  0  0  0  0  0  0  0
    1.6367   -2.7495   -0.4230 C   0  0  0  0  0  0  0  0  0  0  0  0
    1.5545    1.5045    0.6065 C   0  0  0  0  0  0  0  0  0  0  0  0
    2.7188    1.7089    1.3528 C   0  0  0  0  0  0  0  0  0  0  0  0
    3.6236    0.8743    5.1479 H   0  0  0  0  0  0  0  0  0  0  0  0
    5.3465    0.9677    4.7629 H   0  0  0  0  0  0  0  0  0  0  0  0
    4.4403   -0.4568    4.2389 H   0  0  0  0  0  0  0  0  0  0  0  0
    2.0865   -0.4452    3.9052 H   0  0  0  0  0  0  0  0  0  0  0  0
    0.0596   -0.7891    2.6183 H   0  0  0  0  0  0  0  0  0  0  0  0
   -1.4268   -0.1046    0.9090 H   0  0  0  0  0  0  0  0  0  0  0  0
   -2.8301   -0.4008   -1.2697 H   0  0  0  0  0  0  0  0  0  0  0  0
   -1.3771    0.6155   -3.7692 H   0  0  0  0  0  0  0  0  0  0  0  0
   -3.0898    0.2948   -3.5564 H   0  0  0  0  0  0  0  0  0  0  0  0
   -1.9523   -1.0581   -3.5797 H   0  0  0  0  0  0  0  0  0  0  0  0
    1.5193   -0.2934   -1.5247 H   0  0  0  0  0  0  0  0  0  0  0  0
    0.5486    0.9470   -2.2945 H   0  0  0  0  0  0  0  0  0  0  0  0
    0.5443   -0.7025   -2.9218 H   0  0  0  0  0  0  0  0  0  0  0  0
   -0.7661   -2.4589   -1.9270 H   0  0  0  0  0  0  0  0  0  0  0  0
   -1.8004   -2.1996   -0.5483 H   0  0  0  0  0  0  0  0  0  0  0  0
    0.0755   -2.4300    1.0091 H   0  0  0  0  0  0  0  0  0  0  0  0
   -1.3251   -4.3501    0.3504 H   0  0  0  0  0  0  0  0  0  0  0  0
    0.3300   -4.8531    0.7068 H   0  0  0  0  0  0  0  0  0  0  0  0
   -0.2108   -4.7270   -0.9770 H   0  0  0  0  0  0  0  0  0  0  0  0
    2.2201   -3.5039    0.1169 H   0  0  0  0  0  0  0  0  0  0  0  0
    2.0858   -1.7854   -0.1772 H   0  0  0  0  0  0  0  0  0  0  0  0
    1.7609   -2.9352   -1.4948 H   0  0  0  0  0  0  0  0  0  0  0  0
    1.4092    2.0899   -0.2990 H   0  0  0  0  0  0  0  0  0  0  0  0
    3.4577    2.4284    1.0081 H   0  0  0  0  0  0  0  0  0  0  0  0
  1  2  1  0
  2  3  1  0
  3  4  2  0
  4  5  1  0
  5  6  2  0
  6  7  1  0
  7  8  1  0
  8  9  1  0
  9 10  2  0
  9 11  1  0
 11 12  1  0
 11 13  1  0
 13 14  1  0
 13 15  1  0
 15 16  1  0
 16 17  1  0
 16 18  1  0
  6 19  1  0
 19 20  2  0
 20  3  1  0
 13  7  1  0
  1 21  1  0
  1 22  1  0
  1 23  1  0
  4 24  1  0
  5 25  1  0
  7 26  1  0
 11 27  1  0
 12 28  1  0
 12 29  1  0
 12 30  1  0
 14 31  1  0
 14 32  1  0
 14 33  1  0
 15 34  1  0
 15 35  1  0
 16 36  1  0
 17 37  1  0
 17 38  1  0
 17 39  1  0
 18 40  1  0
 18 41  1  0
 18 42  1  0
 19 43  1  0
 20 44  1  0
M  END
>  <energy_abs>  (41) 
46.7843200942329

>  <SMILES>  (41) 
COc1ccc(C2OC(=O)C(C)C2(C)CC(C)C)cc1

>  <cluster_no>  (41) 
41

>  <ccdc_id>  (41) 
33

>  <initial_conformation_id>  (41) 
279

>  <minimize_method>  (41) 
MMFF

$$$$
