%NProcShared=1
%Mem=10GB

#p B3LYP/6-31G* opt freq

test

0  1
C           4.88050         2.08670         3.68500
O           3.79490         1.20410         3.93960
C           2.82370         1.12840         2.98030
C           1.76760         0.26890         3.28430
C           0.70630         0.09600         2.39140
C           0.68290         0.77660         1.16590
C          -0.47210         0.57060         0.20460
O          -0.69190         1.76090        -0.56700
C          -1.25260         1.42390        -1.76070
O          -1.61190         2.23320        -2.60030
C          -1.39520        -0.07530        -1.87110
C          -2.85980        -0.41060        -1.59980
C          -0.34840        -0.56910        -0.84370
C           1.04690        -0.56300        -1.51850
C          -0.62810        -1.95560        -0.19560
C          -0.27610        -3.23660        -0.99060
C          -1.06700        -3.42120        -2.28210
C          -0.49190        -4.46380        -0.09420
C           1.74540         1.64600         0.87420
C           2.80730         1.81920         1.77070
H           5.55870         2.03820         4.54250
H           5.44250         1.77530         2.79830
H           4.53500         3.12160         3.59200
H           1.76900        -0.26880         4.22950
H          -0.10400        -0.57400         2.67020
H          -1.37880         0.43930         0.81170
H          -1.12340        -0.37310        -2.88910
H          -3.05590        -1.48030        -1.68950
H          -3.18030        -0.08750        -0.60380
H          -3.50800         0.09870        -2.32240
H           1.06740        -1.21390        -2.39900
H           1.33530         0.43550        -1.86450
H           1.82330        -0.91530        -0.83050
H          -1.67100        -2.01080         0.13940
H          -0.03500        -2.01040         0.72580
H           0.79040        -3.21650        -1.24390
H          -2.14130        -3.48910        -2.08700
H          -0.88800        -2.60830        -2.98820
H          -0.76780        -4.34840        -2.78410
H           0.11490        -4.39490         0.81490
H          -1.54170        -4.55800         0.20430
H          -0.20350        -5.38300        -0.61540
H           1.75640         2.20670        -0.05920
H           3.60090         2.50400         1.49110

