
     RDKit          3D

 44 45  0  0  0  0  0  0  0  0999 V2000
    4.8805    2.0867    3.6850 C   0  0  0  0  0  0  0  0  0  0  0  0
    3.7949    1.2041    3.9396 O   0  0  0  0  0  0  0  0  0  0  0  0
    2.8237    1.1284    2.9803 C   0  0  0  0  0  0  0  0  0  0  0  0
    1.7676    0.2689    3.2843 C   0  0  0  0  0  0  0  0  0  0  0  0
    0.7063    0.0960    2.3914 C   0  0  0  0  0  0  0  0  0  0  0  0
    0.6829    0.7766    1.1659 C   0  0  0  0  0  0  0  0  0  0  0  0
   -0.4721    0.5706    0.2046 C   0  0  0  0  0  0  0  0  0  0  0  0
   -0.6919    1.7609   -0.5670 O   0  0  0  0  0  0  0  0  0  0  0  0
   -1.2526    1.4239   -1.7607 C   0  0  0  0  0  0  0  0  0  0  0  0
   -1.6119    2.2332   -2.6003 O   0  0  0  0  0  0  0  0  0  0  0  0
   -1.3952   -0.0753   -1.8711 C   0  0  0  0  0  0  0  0  0  0  0  0
   -2.8598   -0.4106   -1.5998 C   0  0  0  0  0  0  0  0  0  0  0  0
   -0.3484   -0.5691   -0.8437 C   0  0  0  0  0  0  0  0  0  0  0  0
    1.0469   -0.5630   -1.5185 C   0  0  0  0  0  0  0  0  0  0  0  0
   -0.6281   -1.9556   -0.1956 C   0  0  0  0  0  0  0  0  0  0  0  0
   -0.2761   -3.2366   -0.9906 C   0  0  0  0  0  0  0  0  0  0  0  0
   -1.0670   -3.4212   -2.2821 C   0  0  0  0  0  0  0  0  0  0  0  0
   -0.4919   -4.4638   -0.0942 C   0  0  0  0  0  0  0  0  0  0  0  0
    1.7454    1.6460    0.8742 C   0  0  0  0  0  0  0  0  0  0  0  0
    2.8073    1.8192    1.7707 C   0  0  0  0  0  0  0  0  0  0  0  0
    5.5587    2.0382    4.5425 H   0  0  0  0  0  0  0  0  0  0  0  0
    5.4425    1.7753    2.7983 H   0  0  0  0  0  0  0  0  0  0  0  0
    4.5350    3.1216    3.5920 H   0  0  0  0  0  0  0  0  0  0  0  0
    1.7690   -0.2688    4.2295 H   0  0  0  0  0  0  0  0  0  0  0  0
   -0.1040   -0.5740    2.6702 H   0  0  0  0  0  0  0  0  0  0  0  0
   -1.3788    0.4393    0.8117 H   0  0  0  0  0  0  0  0  0  0  0  0
   -1.1234   -0.3731   -2.8891 H   0  0  0  0  0  0  0  0  0  0  0  0
   -3.0559   -1.4803   -1.6895 H   0  0  0  0  0  0  0  0  0  0  0  0
   -3.1803   -0.0875   -0.6038 H   0  0  0  0  0  0  0  0  0  0  0  0
   -3.5080    0.0987   -2.3224 H   0  0  0  0  0  0  0  0  0  0  0  0
    1.0674   -1.2139   -2.3990 H   0  0  0  0  0  0  0  0  0  0  0  0
    1.3353    0.4355   -1.8645 H   0  0  0  0  0  0  0  0  0  0  0  0
    1.8233   -0.9153   -0.8305 H   0  0  0  0  0  0  0  0  0  0  0  0
   -1.6710   -2.0108    0.1394 H   0  0  0  0  0  0  0  0  0  0  0  0
   -0.0350   -2.0104    0.7258 H   0  0  0  0  0  0  0  0  0  0  0  0
    0.7904   -3.2165   -1.2439 H   0  0  0  0  0  0  0  0  0  0  0  0
   -2.1413   -3.4891   -2.0870 H   0  0  0  0  0  0  0  0  0  0  0  0
   -0.8880   -2.6083   -2.9882 H   0  0  0  0  0  0  0  0  0  0  0  0
   -0.7678   -4.3484   -2.7841 H   0  0  0  0  0  0  0  0  0  0  0  0
    0.1149   -4.3949    0.8149 H   0  0  0  0  0  0  0  0  0  0  0  0
   -1.5417   -4.5580    0.2043 H   0  0  0  0  0  0  0  0  0  0  0  0
   -0.2035   -5.3830   -0.6154 H   0  0  0  0  0  0  0  0  0  0  0  0
    1.7564    2.2067   -0.0592 H   0  0  0  0  0  0  0  0  0  0  0  0
    3.6009    2.5040    1.4911 H   0  0  0  0  0  0  0  0  0  0  0  0
  1  2  1  0
  2  3  1  0
  3  4  2  0
  4  5  1  0
  5  6  2  0
  6  7  1  0
  7  8  1  0
  8  9  1  0
  9 10  2  0
  9 11  1  0
 11 12  1  0
 11 13  1  0
 13 14  1  0
 13 15  1  0
 15 16  1  0
 16 17  1  0
 16 18  1  0
  6 19  1  0
 19 20  2  0
 20  3  1  0
 13  7  1  0
  1 21  1  0
  1 22  1  0
  1 23  1  0
  4 24  1  0
  5 25  1  0
  7 26  1  0
 11 27  1  0
 12 28  1  0
 12 29  1  0
 12 30  1  0
 14 31  1  0
 14 32  1  0
 14 33  1  0
 15 34  1  0
 15 35  1  0
 16 36  1  0
 17 37  1  0
 17 38  1  0
 17 39  1  0
 18 40  1  0
 18 41  1  0
 18 42  1  0
 19 43  1  0
 20 44  1  0
M  END
>  <energy_abs>  (43) 
43.968358572503625

>  <SMILES>  (43) 
COc1ccc(C2OC(=O)C(C)C2(C)CC(C)C)cc1

>  <cluster_no>  (43) 
43

>  <ccdc_id>  (43) 
33

>  <initial_conformation_id>  (43) 
276

>  <minimize_method>  (43) 
MMFF

$$$$
