%NProcShared=1
%Mem=10GB

#p B3LYP/6-31G* opt freq

test

0  1
C           4.74580         1.92030         4.07390
O           3.88000         2.59650         3.17140
C           2.86380         1.86470         2.62320
C           2.02930         2.57630         1.76130
C           0.94980         1.95160         1.12880
C           0.68730         0.59140         1.33770
C          -0.47120        -0.13440         0.67440
O          -1.50030         0.79430         0.30140
C          -1.53540         0.95020        -1.04840
O          -2.24680         1.76300        -1.61770
C          -0.57900         0.00760        -1.73060
C           0.55530         0.79910        -2.36970
C          -0.20090        -0.97780        -0.60390
C           1.22790        -1.52960        -0.70410
C          -1.22600        -2.17340        -0.59340
C          -1.16030        -3.14570        -1.79760
C          -2.57400        -3.50340        -2.26810
C          -0.41460        -4.43560        -1.44070
C           1.52480        -0.11160         2.22090
C           2.60500         0.51590         2.85390
H           4.19770         1.55660         4.94940
H           5.27850         1.10490         3.57350
H           5.49210         2.63990         4.42390
H           2.21580         3.63310         1.58350
H           0.31710         2.55380         0.48010
H          -0.91900        -0.76490         1.45380
H          -1.13730        -0.49970        -2.52470
H           0.15880         1.53760        -3.07580
H           1.14750         1.34870        -1.63390
H           1.22670         0.14000        -2.92890
H           1.39690        -2.03260        -1.66160
H           1.98700        -0.74430        -0.63260
H           1.42670        -2.25360         0.09330
H          -2.23890        -1.75290        -0.52580
H          -1.08930        -2.74650         0.33420
H          -0.64410        -2.67670        -2.64240
H          -3.14990        -3.98370        -1.46970
H          -3.11510        -2.60570        -2.58610
H          -2.53920        -4.18920        -3.12130
H          -0.92020        -4.97620        -0.63300
H          -0.36210        -5.10300        -2.30780
H           0.61040        -4.23390        -1.11930
H           1.34220        -1.16480         2.42750
H           3.21980        -0.07790         3.52180

