
     RDKit          3D

 44 45  0  0  0  0  0  0  0  0999 V2000
    4.7458    1.9203    4.0739 C   0  0  0  0  0  0  0  0  0  0  0  0
    3.8800    2.5965    3.1714 O   0  0  0  0  0  0  0  0  0  0  0  0
    2.8638    1.8647    2.6232 C   0  0  0  0  0  0  0  0  0  0  0  0
    2.0293    2.5763    1.7613 C   0  0  0  0  0  0  0  0  0  0  0  0
    0.9498    1.9516    1.1288 C   0  0  0  0  0  0  0  0  0  0  0  0
    0.6873    0.5914    1.3377 C   0  0  0  0  0  0  0  0  0  0  0  0
   -0.4712   -0.1344    0.6744 C   0  0  0  0  0  0  0  0  0  0  0  0
   -1.5003    0.7943    0.3014 O   0  0  0  0  0  0  0  0  0  0  0  0
   -1.5354    0.9502   -1.0484 C   0  0  0  0  0  0  0  0  0  0  0  0
   -2.2468    1.7630   -1.6177 O   0  0  0  0  0  0  0  0  0  0  0  0
   -0.5790    0.0076   -1.7306 C   0  0  0  0  0  0  0  0  0  0  0  0
    0.5553    0.7991   -2.3697 C   0  0  0  0  0  0  0  0  0  0  0  0
   -0.2009   -0.9778   -0.6039 C   0  0  0  0  0  0  0  0  0  0  0  0
    1.2279   -1.5296   -0.7041 C   0  0  0  0  0  0  0  0  0  0  0  0
   -1.2260   -2.1734   -0.5934 C   0  0  0  0  0  0  0  0  0  0  0  0
   -1.1603   -3.1457   -1.7976 C   0  0  0  0  0  0  0  0  0  0  0  0
   -2.5740   -3.5034   -2.2681 C   0  0  0  0  0  0  0  0  0  0  0  0
   -0.4146   -4.4356   -1.4407 C   0  0  0  0  0  0  0  0  0  0  0  0
    1.5248   -0.1116    2.2209 C   0  0  0  0  0  0  0  0  0  0  0  0
    2.6050    0.5159    2.8539 C   0  0  0  0  0  0  0  0  0  0  0  0
    4.1977    1.5566    4.9494 H   0  0  0  0  0  0  0  0  0  0  0  0
    5.2785    1.1049    3.5735 H   0  0  0  0  0  0  0  0  0  0  0  0
    5.4921    2.6399    4.4239 H   0  0  0  0  0  0  0  0  0  0  0  0
    2.2158    3.6331    1.5835 H   0  0  0  0  0  0  0  0  0  0  0  0
    0.3171    2.5538    0.4801 H   0  0  0  0  0  0  0  0  0  0  0  0
   -0.9190   -0.7649    1.4538 H   0  0  0  0  0  0  0  0  0  0  0  0
   -1.1373   -0.4997   -2.5247 H   0  0  0  0  0  0  0  0  0  0  0  0
    0.1588    1.5376   -3.0758 H   0  0  0  0  0  0  0  0  0  0  0  0
    1.1475    1.3487   -1.6339 H   0  0  0  0  0  0  0  0  0  0  0  0
    1.2267    0.1400   -2.9289 H   0  0  0  0  0  0  0  0  0  0  0  0
    1.3969   -2.0326   -1.6616 H   0  0  0  0  0  0  0  0  0  0  0  0
    1.9870   -0.7443   -0.6326 H   0  0  0  0  0  0  0  0  0  0  0  0
    1.4267   -2.2536    0.0933 H   0  0  0  0  0  0  0  0  0  0  0  0
   -2.2389   -1.7529   -0.5258 H   0  0  0  0  0  0  0  0  0  0  0  0
   -1.0893   -2.7465    0.3342 H   0  0  0  0  0  0  0  0  0  0  0  0
   -0.6441   -2.6767   -2.6424 H   0  0  0  0  0  0  0  0  0  0  0  0
   -3.1499   -3.9837   -1.4697 H   0  0  0  0  0  0  0  0  0  0  0  0
   -3.1151   -2.6057   -2.5861 H   0  0  0  0  0  0  0  0  0  0  0  0
   -2.5392   -4.1892   -3.1213 H   0  0  0  0  0  0  0  0  0  0  0  0
   -0.9202   -4.9762   -0.6330 H   0  0  0  0  0  0  0  0  0  0  0  0
   -0.3621   -5.1030   -2.3078 H   0  0  0  0  0  0  0  0  0  0  0  0
    0.6104   -4.2339   -1.1193 H   0  0  0  0  0  0  0  0  0  0  0  0
    1.3422   -1.1648    2.4275 H   0  0  0  0  0  0  0  0  0  0  0  0
    3.2198   -0.0779    3.5218 H   0  0  0  0  0  0  0  0  0  0  0  0
  1  2  1  0
  2  3  1  0
  3  4  2  0
  4  5  1  0
  5  6  2  0
  6  7  1  0
  7  8  1  0
  8  9  1  0
  9 10  2  0
  9 11  1  0
 11 12  1  0
 11 13  1  0
 13 14  1  0
 13 15  1  0
 15 16  1  0
 16 17  1  0
 16 18  1  0
  6 19  1  0
 19 20  2  0
 20  3  1  0
 13  7  1  0
  1 21  1  0
  1 22  1  0
  1 23  1  0
  4 24  1  0
  5 25  1  0
  7 26  1  0
 11 27  1  0
 12 28  1  0
 12 29  1  0
 12 30  1  0
 14 31  1  0
 14 32  1  0
 14 33  1  0
 15 34  1  0
 15 35  1  0
 16 36  1  0
 17 37  1  0
 17 38  1  0
 17 39  1  0
 18 40  1  0
 18 41  1  0
 18 42  1  0
 19 43  1  0
 20 44  1  0
M  END
>  <energy_abs>  (44) 
46.902994216021774

>  <SMILES>  (44) 
COc1ccc(C2OC(=O)C(C)C2(C)CC(C)C)cc1

>  <cluster_no>  (44) 
44

>  <ccdc_id>  (44) 
33

>  <initial_conformation_id>  (44) 
275

>  <minimize_method>  (44) 
MMFF

$$$$
