%NProcShared=1
%Mem=10GB

#p B3LYP/6-31G* opt freq

test

0  1
C           4.35680         0.91670         4.29590
O           2.97000         1.17810         4.12190
C           2.45540         0.97550         2.87210
C           3.15420         0.51930         1.75870
C           2.49560         0.35450         0.53320
C           1.12340         0.62540         0.39280
C           0.46330         0.43260        -0.96240
O          -0.06890         1.70260        -1.38200
C          -1.42840         1.69590        -1.30240
O          -2.12850         2.66640        -1.54110
C          -1.91970         0.34250        -0.85400
C          -3.23720        -0.02720        -1.52570
C          -0.70610        -0.57210        -1.14820
C          -0.72680        -1.03010        -2.63040
C          -0.72630        -1.80710        -0.20030
C           0.11810        -3.05000        -0.56470
C          -0.19790        -4.18480         0.41920
C           1.62200        -2.80170        -0.56850
C           0.44170         1.10970         1.51720
C           1.09980         1.27320         2.74130
H           4.96480         1.57130         3.66270
H           4.60970         1.13350         5.33820
H           4.58580        -0.13790         4.11020
H           4.21270         0.28600         1.80370
H           3.07760         0.00840        -0.31950
H           1.25390         0.19620        -1.68520
H          -2.09650         0.40160         0.22570
H          -3.52370        -1.05920        -1.30330
H          -3.19900         0.10070        -2.61260
H          -4.04010         0.62510        -1.16360
H          -0.86070        -0.18600        -3.31650
H          -1.53610        -1.74430        -2.81760
H           0.21230        -1.51630        -2.91430
H          -1.76820        -2.15400        -0.14870
H          -0.48790        -1.50090         0.82490
H          -0.17470        -3.40540        -1.55950
H          -1.26500        -4.43090         0.40140
H           0.35540        -5.09310         0.15750
H           0.07000        -3.90800         1.44470
H           2.16280        -3.72150        -0.81810
H           1.97090        -2.47360         0.41520
H           1.90610        -2.05500        -1.31280
H          -0.60570         1.38870         1.47070
H           0.54830         1.64860         3.60050

