
     RDKit          3D

 44 45  0  0  0  0  0  0  0  0999 V2000
    4.3568    0.9167    4.2959 C   0  0  0  0  0  0  0  0  0  0  0  0
    2.9700    1.1781    4.1219 O   0  0  0  0  0  0  0  0  0  0  0  0
    2.4554    0.9755    2.8721 C   0  0  0  0  0  0  0  0  0  0  0  0
    3.1542    0.5193    1.7587 C   0  0  0  0  0  0  0  0  0  0  0  0
    2.4956    0.3545    0.5332 C   0  0  0  0  0  0  0  0  0  0  0  0
    1.1234    0.6254    0.3928 C   0  0  0  0  0  0  0  0  0  0  0  0
    0.4633    0.4326   -0.9624 C   0  0  0  0  0  0  0  0  0  0  0  0
   -0.0689    1.7026   -1.3820 O   0  0  0  0  0  0  0  0  0  0  0  0
   -1.4284    1.6959   -1.3024 C   0  0  0  0  0  0  0  0  0  0  0  0
   -2.1285    2.6664   -1.5411 O   0  0  0  0  0  0  0  0  0  0  0  0
   -1.9197    0.3425   -0.8540 C   0  0  0  0  0  0  0  0  0  0  0  0
   -3.2372   -0.0272   -1.5257 C   0  0  0  0  0  0  0  0  0  0  0  0
   -0.7061   -0.5721   -1.1482 C   0  0  0  0  0  0  0  0  0  0  0  0
   -0.7268   -1.0301   -2.6304 C   0  0  0  0  0  0  0  0  0  0  0  0
   -0.7263   -1.8071   -0.2003 C   0  0  0  0  0  0  0  0  0  0  0  0
    0.1181   -3.0500   -0.5647 C   0  0  0  0  0  0  0  0  0  0  0  0
   -0.1979   -4.1848    0.4192 C   0  0  0  0  0  0  0  0  0  0  0  0
    1.6220   -2.8017   -0.5685 C   0  0  0  0  0  0  0  0  0  0  0  0
    0.4417    1.1097    1.5172 C   0  0  0  0  0  0  0  0  0  0  0  0
    1.0998    1.2732    2.7413 C   0  0  0  0  0  0  0  0  0  0  0  0
    4.9648    1.5713    3.6627 H   0  0  0  0  0  0  0  0  0  0  0  0
    4.6097    1.1335    5.3382 H   0  0  0  0  0  0  0  0  0  0  0  0
    4.5858   -0.1379    4.1102 H   0  0  0  0  0  0  0  0  0  0  0  0
    4.2127    0.2860    1.8037 H   0  0  0  0  0  0  0  0  0  0  0  0
    3.0776    0.0084   -0.3195 H   0  0  0  0  0  0  0  0  0  0  0  0
    1.2539    0.1962   -1.6852 H   0  0  0  0  0  0  0  0  0  0  0  0
   -2.0965    0.4016    0.2257 H   0  0  0  0  0  0  0  0  0  0  0  0
   -3.5237   -1.0592   -1.3033 H   0  0  0  0  0  0  0  0  0  0  0  0
   -3.1990    0.1007   -2.6126 H   0  0  0  0  0  0  0  0  0  0  0  0
   -4.0401    0.6251   -1.1636 H   0  0  0  0  0  0  0  0  0  0  0  0
   -0.8607   -0.1860   -3.3165 H   0  0  0  0  0  0  0  0  0  0  0  0
   -1.5361   -1.7443   -2.8176 H   0  0  0  0  0  0  0  0  0  0  0  0
    0.2123   -1.5163   -2.9143 H   0  0  0  0  0  0  0  0  0  0  0  0
   -1.7682   -2.1540   -0.1487 H   0  0  0  0  0  0  0  0  0  0  0  0
   -0.4879   -1.5009    0.8249 H   0  0  0  0  0  0  0  0  0  0  0  0
   -0.1747   -3.4054   -1.5595 H   0  0  0  0  0  0  0  0  0  0  0  0
   -1.2650   -4.4309    0.4014 H   0  0  0  0  0  0  0  0  0  0  0  0
    0.3554   -5.0931    0.1575 H   0  0  0  0  0  0  0  0  0  0  0  0
    0.0700   -3.9080    1.4447 H   0  0  0  0  0  0  0  0  0  0  0  0
    2.1628   -3.7215   -0.8181 H   0  0  0  0  0  0  0  0  0  0  0  0
    1.9709   -2.4736    0.4152 H   0  0  0  0  0  0  0  0  0  0  0  0
    1.9061   -2.0550   -1.3128 H   0  0  0  0  0  0  0  0  0  0  0  0
   -0.6057    1.3887    1.4707 H   0  0  0  0  0  0  0  0  0  0  0  0
    0.5483    1.6486    3.6005 H   0  0  0  0  0  0  0  0  0  0  0  0
  1  2  1  0
  2  3  1  0
  3  4  2  0
  4  5  1  0
  5  6  2  0
  6  7  1  0
  7  8  1  0
  8  9  1  0
  9 10  2  0
  9 11  1  0
 11 12  1  0
 11 13  1  0
 13 14  1  0
 13 15  1  0
 15 16  1  0
 16 17  1  0
 16 18  1  0
  6 19  1  0
 19 20  2  0
 20  3  1  0
 13  7  1  0
  1 21  1  0
  1 22  1  0
  1 23  1  0
  4 24  1  0
  5 25  1  0
  7 26  1  0
 11 27  1  0
 12 28  1  0
 12 29  1  0
 12 30  1  0
 14 31  1  0
 14 32  1  0
 14 33  1  0
 15 34  1  0
 15 35  1  0
 16 36  1  0
 17 37  1  0
 17 38  1  0
 17 39  1  0
 18 40  1  0
 18 41  1  0
 18 42  1  0
 19 43  1  0
 20 44  1  0
M  END
>  <energy_abs>  (45) 
46.22440837112103

>  <SMILES>  (45) 
COc1ccc(C2OC(=O)C(C)C2(C)CC(C)C)cc1

>  <cluster_no>  (45) 
45

>  <ccdc_id>  (45) 
33

>  <initial_conformation_id>  (45) 
274

>  <minimize_method>  (45) 
MMFF

$$$$
