#Put Keywords Here, check Charge and Multiplicity.

 

0  1
C           3.64710         1.06250         4.95900
O           4.04760         0.95440         3.59870
C           3.05490         0.98840         2.65910
C           3.49700         0.89890         1.33860
C           2.58830         0.92060         0.27700
C           1.21130         1.02710         0.51660
C           0.23940         1.03790        -0.64560
O          -1.00240         1.65340        -0.27350
C          -1.98010         1.20850        -1.11240
O          -3.12740         1.62190        -1.10140
C          -1.41190         0.17090        -2.05170
C          -2.45710        -0.84480        -2.47440
C          -0.16880        -0.32730        -1.27170
C           0.91180        -0.82210        -2.24050
C          -0.50830        -1.38770        -0.16640
C          -0.69700        -2.86480        -0.59710
C          -1.75400        -3.53520         0.28990
C           0.60410        -3.66890        -0.48910
C           0.77680         1.12340         1.84770
C           1.68920         1.10240         2.90980
H           3.15100         2.01980         5.15000
H           3.01020         0.22090         5.25080
H           4.54960         1.02640         5.57680
H           4.56180         0.81510         1.13440
H           2.97260         0.85890        -0.73850
H           0.67270         1.69870        -1.41140
H          -1.09120         0.72040        -2.94820
H          -2.02630        -1.60630        -3.13050
H          -2.93410        -1.32980        -1.61810
H          -3.25880        -0.35080        -3.03560
H           1.20230        -0.03750        -2.94880
H           1.81740        -1.12640        -1.70800
H           0.56160        -1.67100        -2.83600
H          -1.40890        -1.04810         0.36240
H           0.28350        -1.38620         0.59140
H          -1.04620        -2.92830        -1.63010
H          -1.45730        -3.51710         1.34420
H          -2.71960        -3.02670         0.20040
H          -1.90300        -4.58010        -0.00290
H           0.99130        -3.66440         0.53580
H           1.38370        -3.27580        -1.14470
H           0.43610        -4.71270        -0.77670
H          -0.28430         1.21480         2.07490
H           1.29600         1.17880         3.91800

