
     RDKit          3D

 44 45  0  0  0  0  0  0  0  0999 V2000
    3.6471    1.0625    4.9590 C   0  0  0  0  0  0  0  0  0  0  0  0
    4.0476    0.9544    3.5987 O   0  0  0  0  0  0  0  0  0  0  0  0
    3.0549    0.9884    2.6591 C   0  0  0  0  0  0  0  0  0  0  0  0
    3.4970    0.8989    1.3386 C   0  0  0  0  0  0  0  0  0  0  0  0
    2.5883    0.9206    0.2770 C   0  0  0  0  0  0  0  0  0  0  0  0
    1.2113    1.0271    0.5166 C   0  0  0  0  0  0  0  0  0  0  0  0
    0.2394    1.0379   -0.6456 C   0  0  0  0  0  0  0  0  0  0  0  0
   -1.0024    1.6534   -0.2735 O   0  0  0  0  0  0  0  0  0  0  0  0
   -1.9801    1.2085   -1.1124 C   0  0  0  0  0  0  0  0  0  0  0  0
   -3.1274    1.6219   -1.1014 O   0  0  0  0  0  0  0  0  0  0  0  0
   -1.4119    0.1709   -2.0517 C   0  0  0  0  0  0  0  0  0  0  0  0
   -2.4571   -0.8448   -2.4744 C   0  0  0  0  0  0  0  0  0  0  0  0
   -0.1688   -0.3273   -1.2717 C   0  0  0  0  0  0  0  0  0  0  0  0
    0.9118   -0.8221   -2.2405 C   0  0  0  0  0  0  0  0  0  0  0  0
   -0.5083   -1.3877   -0.1664 C   0  0  0  0  0  0  0  0  0  0  0  0
   -0.6970   -2.8648   -0.5971 C   0  0  0  0  0  0  0  0  0  0  0  0
   -1.7540   -3.5352    0.2899 C   0  0  0  0  0  0  0  0  0  0  0  0
    0.6041   -3.6689   -0.4891 C   0  0  0  0  0  0  0  0  0  0  0  0
    0.7768    1.1234    1.8477 C   0  0  0  0  0  0  0  0  0  0  0  0
    1.6892    1.1024    2.9098 C   0  0  0  0  0  0  0  0  0  0  0  0
    3.1510    2.0198    5.1500 H   0  0  0  0  0  0  0  0  0  0  0  0
    3.0102    0.2209    5.2508 H   0  0  0  0  0  0  0  0  0  0  0  0
    4.5496    1.0264    5.5768 H   0  0  0  0  0  0  0  0  0  0  0  0
    4.5618    0.8151    1.1344 H   0  0  0  0  0  0  0  0  0  0  0  0
    2.9726    0.8589   -0.7385 H   0  0  0  0  0  0  0  0  0  0  0  0
    0.6727    1.6987   -1.4114 H   0  0  0  0  0  0  0  0  0  0  0  0
   -1.0912    0.7204   -2.9482 H   0  0  0  0  0  0  0  0  0  0  0  0
   -2.0263   -1.6063   -3.1305 H   0  0  0  0  0  0  0  0  0  0  0  0
   -2.9341   -1.3298   -1.6181 H   0  0  0  0  0  0  0  0  0  0  0  0
   -3.2588   -0.3508   -3.0356 H   0  0  0  0  0  0  0  0  0  0  0  0
    1.2023   -0.0375   -2.9488 H   0  0  0  0  0  0  0  0  0  0  0  0
    1.8174   -1.1264   -1.7080 H   0  0  0  0  0  0  0  0  0  0  0  0
    0.5616   -1.6710   -2.8360 H   0  0  0  0  0  0  0  0  0  0  0  0
   -1.4089   -1.0481    0.3624 H   0  0  0  0  0  0  0  0  0  0  0  0
    0.2835   -1.3862    0.5914 H   0  0  0  0  0  0  0  0  0  0  0  0
   -1.0462   -2.9283   -1.6301 H   0  0  0  0  0  0  0  0  0  0  0  0
   -1.4573   -3.5171    1.3442 H   0  0  0  0  0  0  0  0  0  0  0  0
   -2.7196   -3.0267    0.2004 H   0  0  0  0  0  0  0  0  0  0  0  0
   -1.9030   -4.5801   -0.0029 H   0  0  0  0  0  0  0  0  0  0  0  0
    0.9913   -3.6644    0.5358 H   0  0  0  0  0  0  0  0  0  0  0  0
    1.3837   -3.2758   -1.1447 H   0  0  0  0  0  0  0  0  0  0  0  0
    0.4361   -4.7127   -0.7767 H   0  0  0  0  0  0  0  0  0  0  0  0
   -0.2843    1.2148    2.0749 H   0  0  0  0  0  0  0  0  0  0  0  0
    1.2960    1.1788    3.9180 H   0  0  0  0  0  0  0  0  0  0  0  0
  1  2  1  0
  2  3  1  0
  3  4  2  0
  4  5  1  0
  5  6  2  0
  6  7  1  0
  7  8  1  0
  8  9  1  0
  9 10  2  0
  9 11  1  0
 11 12  1  0
 11 13  1  0
 13 14  1  0
 13 15  1  0
 15 16  1  0
 16 17  1  0
 16 18  1  0
  6 19  1  0
 19 20  2  0
 20  3  1  0
 13  7  1  0
  1 21  1  0
  1 22  1  0
  1 23  1  0
  4 24  1  0
  5 25  1  0
  7 26  1  0
 11 27  1  0
 12 28  1  0
 12 29  1  0
 12 30  1  0
 14 31  1  0
 14 32  1  0
 14 33  1  0
 15 34  1  0
 15 35  1  0
 16 36  1  0
 17 37  1  0
 17 38  1  0
 17 39  1  0
 18 40  1  0
 18 41  1  0
 18 42  1  0
 19 43  1  0
 20 44  1  0
M  END
>  <energy_abs>  (46) 
45.95386746692127

>  <SMILES>  (46) 
COc1ccc(C2OC(=O)C(C)C2(C)CC(C)C)cc1

>  <cluster_no>  (46) 
46

>  <ccdc_id>  (46) 
33

>  <initial_conformation_id>  (46) 
273

>  <minimize_method>  (46) 
MMFF

$$$$
