%NProcShared=1
%Mem=10GB

#p B3LYP/6-31G* opt freq

test

0  1
C           2.96620         1.53950         5.07730
O           3.53890         1.00960         3.88840
C           2.75070         1.00780         2.77130
C           1.43080         1.44710         2.69560
C           0.73300         1.38710         1.48190
C           1.34130         0.88590         0.32130
C           0.61640         0.78410        -1.01110
O          -0.29080         1.88570        -1.15660
C          -1.57130         1.46100        -0.98230
O          -2.53350         2.21200        -0.95940
C          -1.61670        -0.03660        -0.78670
C          -2.84480        -0.60540        -1.48970
C          -0.23690        -0.48770        -1.29880
C          -0.22910        -0.70560        -2.83460
C           0.33740        -1.75570        -0.59800
C          -0.44050        -3.08300        -0.75320
C          -1.37180        -3.33480         0.43720
C           0.54090        -4.25650        -0.86240
C           2.67390         0.45310         0.41010
C           3.36640         0.51180         1.62240
H           2.10400         0.94570         5.39830
H           3.72190         1.48210         5.86660
H           2.69650         2.59330         4.95060
H           0.91120         1.84750         3.55990
H          -0.29100         1.75310         1.46400
H           1.37080         0.91570        -1.79800
H          -1.69450        -0.21080         0.29320
H          -2.85170        -1.69670        -1.49740
H          -2.92570        -0.25350        -2.52400
H          -3.75650        -0.27690        -0.97720
H          -0.88650        -1.52120        -3.14740
H          -0.55020         0.19430        -3.37190
H           0.78040        -0.95010        -3.18550
H           0.45440        -1.56580         0.47600
H           1.35560        -1.89860        -0.98590
H          -1.03800        -3.08010        -1.66830
H          -1.93860        -4.26100         0.29280
H          -2.09310        -2.52560         0.57020
H          -0.80580        -3.43270         1.37030
H           1.18290        -4.32280         0.02270
H           1.18400        -4.14330        -1.74190
H           0.00400        -5.20560        -0.96480
H           3.18820         0.06160        -0.46530
H           4.39760         0.17000         1.67090

