#Put Keywords Here, check Charge and Multiplicity.

 

0  1
C           3.58380         0.15250         4.85600
O           3.86300         0.64610         3.55190
C           2.81030         0.72090         2.68250
C           3.12990         1.22090         1.41970
C           2.14930         1.34840         0.43220
C           0.82360         0.96860         0.68740
C          -0.22150         1.11030        -0.39500
O          -1.53250         1.24510         0.17780
C          -2.45910         0.89140        -0.75740
O          -3.66400         0.98480        -0.59510
C          -1.75990         0.40970        -2.00440
C          -2.57110        -0.63500        -2.75470
C          -0.36900        -0.01420        -1.45450
C           0.68260         0.11660        -2.56280
C          -0.41790        -1.46040        -0.84800
C           0.91950        -2.15060        -0.47730
C           0.71350        -3.07330         0.73110
C           1.47600        -2.99290        -1.63220
C           0.50990         0.47830         1.96360
C           1.49400         0.35240         2.95190
H           4.51980         0.15800         5.42280
H           2.87350         0.80060         5.38000
H           3.22380        -0.88100         4.81820
H           4.15380         1.51670         1.20340
H           2.43500         1.74880        -0.53790
H          -0.02610         2.07340        -0.89090
H          -1.65170         1.29010        -2.65350
H          -3.44940        -0.16790        -3.21500
H          -2.95180        -1.41930        -2.09220
H          -1.98380        -1.09630        -3.55420
H           0.48790        -0.59260        -3.37400
H           0.67450         1.12000        -3.00430
H           1.69600        -0.05560        -2.18990
H          -1.06690        -1.43310         0.03730
H          -0.92320        -2.13150        -1.55190
H           1.67640        -1.41270        -0.20450
H           1.65360        -3.55820         1.01540
H          -0.01960        -3.85720         0.51140
H           0.35640        -2.51200         1.59990
H           1.69280        -2.38870        -2.51510
H           0.77130        -3.77820        -1.92740
H           2.41160        -3.48010        -1.33600
H          -0.51060         0.18490         2.20480
H           1.19420        -0.03580         3.91950

