
     RDKit          3D

 44 45  0  0  0  0  0  0  0  0999 V2000
    5.8938    2.0713    1.5183 C   0  0  0  0  0  0  0  0  0  0  0  0
    4.9580    2.3246    0.4780 O   0  0  0  0  0  0  0  0  0  0  0  0
    3.6932    1.8359    0.6537 C   0  0  0  0  0  0  0  0  0  0  0  0
    3.2413    1.0981    1.7456 C   0  0  0  0  0  0  0  0  0  0  0  0
    1.9134    0.6560    1.7971 C   0  0  0  0  0  0  0  0  0  0  0  0
    1.0140    0.9394    0.7580 C   0  0  0  0  0  0  0  0  0  0  0  0
   -0.4242    0.4618    0.7892 C   0  0  0  0  0  0  0  0  0  0  0  0
   -0.8718    0.2770    2.1404 O   0  0  0  0  0  0  0  0  0  0  0  0
   -1.8590   -0.6612    2.1621 C   0  0  0  0  0  0  0  0  0  0  0  0
   -2.4896   -0.9660    3.1614 O   0  0  0  0  0  0  0  0  0  0  0  0
   -2.0741   -1.2354    0.7823 C   0  0  0  0  0  0  0  0  0  0  0  0
   -3.3497   -0.6230    0.2116 C   0  0  0  0  0  0  0  0  0  0  0  0
   -0.7428   -0.8781    0.0802 C   0  0  0  0  0  0  0  0  0  0  0  0
    0.2981   -1.9671    0.4361 C   0  0  0  0  0  0  0  0  0  0  0  0
   -0.8374   -0.6915   -1.4598 C   0  0  0  0  0  0  0  0  0  0  0  0
   -1.2731   -1.9305   -2.2791 C   0  0  0  0  0  0  0  0  0  0  0  0
   -2.1400   -1.4961   -3.4679 C   0  0  0  0  0  0  0  0  0  0  0  0
   -0.0730   -2.7143   -2.8224 C   0  0  0  0  0  0  0  0  0  0  0  0
    1.4787    1.6897   -0.3312 C   0  0  0  0  0  0  0  0  0  0  0  0
    2.8045    2.1288   -0.3813 C   0  0  0  0  0  0  0  0  0  0  0  0
    5.5729    2.5307    2.4591 H   0  0  0  0  0  0  0  0  0  0  0  0
    6.0665    0.9969    1.6407 H   0  0  0  0  0  0  0  0  0  0  0  0
    6.8448    2.5304    1.2315 H   0  0  0  0  0  0  0  0  0  0  0  0
    3.8915    0.8491    2.5775 H   0  0  0  0  0  0  0  0  0  0  0  0
    1.5880    0.0865    2.6662 H   0  0  0  0  0  0  0  0  0  0  0  0
   -1.0429    1.2749    0.3841 H   0  0  0  0  0  0  0  0  0  0  0  0
   -2.1935   -2.3215    0.8671 H   0  0  0  0  0  0  0  0  0  0  0  0
   -3.2741    0.4640    0.1044 H   0  0  0  0  0  0  0  0  0  0  0  0
   -4.1999   -0.8200    0.8749 H   0  0  0  0  0  0  0  0  0  0  0  0
   -3.5954   -1.0501   -0.7635 H   0  0  0  0  0  0  0  0  0  0  0  0
   -0.0500   -2.9608    0.1354 H   0  0  0  0  0  0  0  0  0  0  0  0
    0.4890   -2.0195    1.5137 H   0  0  0  0  0  0  0  0  0  0  0  0
    1.2561   -1.7821   -0.0615 H   0  0  0  0  0  0  0  0  0  0  0  0
   -1.5318    0.1350   -1.6596 H   0  0  0  0  0  0  0  0  0  0  0  0
    0.1312   -0.3461   -1.8421 H   0  0  0  0  0  0  0  0  0  0  0  0
   -1.8744   -2.6025   -1.6569 H   0  0  0  0  0  0  0  0  0  0  0  0
   -3.0406   -0.9747   -3.1279 H   0  0  0  0  0  0  0  0  0  0  0  0
   -2.4625   -2.3642   -4.0527 H   0  0  0  0  0  0  0  0  0  0  0  0
   -1.5907   -0.8226   -4.1348 H   0  0  0  0  0  0  0  0  0  0  0  0
   -0.4102   -3.5809   -3.4018 H   0  0  0  0  0  0  0  0  0  0  0  0
    0.5416   -2.0915   -3.4818 H   0  0  0  0  0  0  0  0  0  0  0  0
    0.5702   -3.0897   -2.0242 H   0  0  0  0  0  0  0  0  0  0  0  0
    0.8136    1.9462   -1.1528 H   0  0  0  0  0  0  0  0  0  0  0  0
    3.1478    2.7090   -1.2346 H   0  0  0  0  0  0  0  0  0  0  0  0
  1  2  1  0
  2  3  1  0
  3  4  2  0
  4  5  1  0
  5  6  2  0
  6  7  1  0
  7  8  1  0
  8  9  1  0
  9 10  2  0
  9 11  1  0
 11 12  1  0
 11 13  1  0
 13 14  1  0
 13 15  1  0
 15 16  1  0
 16 17  1  0
 16 18  1  0
  6 19  1  0
 19 20  2  0
 20  3  1  0
 13  7  1  0
  1 21  1  0
  1 22  1  0
  1 23  1  0
  4 24  1  0
  5 25  1  0
  7 26  1  0
 11 27  1  0
 12 28  1  0
 12 29  1  0
 12 30  1  0
 14 31  1  0
 14 32  1  0
 14 33  1  0
 15 34  1  0
 15 35  1  0
 16 36  1  0
 17 37  1  0
 17 38  1  0
 17 39  1  0
 18 40  1  0
 18 41  1  0
 18 42  1  0
 19 43  1  0
 20 44  1  0
M  END
>  <energy_abs>  (5) 
43.55545027087747

>  <SMILES>  (5) 
COc1ccc(C2OC(=O)C(C)C2(C)CC(C)C)cc1

>  <cluster_no>  (5) 
5

>  <ccdc_id>  (5) 
33

>  <initial_conformation_id>  (5) 
154

>  <minimize_method>  (5) 
MMFF

$$$$
