
     RDKit          3D

 44 45  0  0  0  0  0  0  0  0999 V2000
    4.6053    1.1002    4.2764 C   0  0  0  0  0  0  0  0  0  0  0  0
    3.2754    0.5995    4.3192 O   0  0  0  0  0  0  0  0  0  0  0  0
    2.5106    0.7782    3.2001 C   0  0  0  0  0  0  0  0  0  0  0  0
    1.2091    0.2852    3.2966 C   0  0  0  0  0  0  0  0  0  0  0  0
    0.3195    0.3997    2.2248 C   0  0  0  0  0  0  0  0  0  0  0  0
    0.7180    1.0085    1.0264 C   0  0  0  0  0  0  0  0  0  0  0  0
   -0.2201    1.1362   -0.1565 C   0  0  0  0  0  0  0  0  0  0  0  0
   -1.5912    1.0734    0.2618 O   0  0  0  0  0  0  0  0  0  0  0  0
   -2.3549    0.6868   -0.7989 C   0  0  0  0  0  0  0  0  0  0  0  0
   -3.5730    0.6324   -0.7781 O   0  0  0  0  0  0  0  0  0  0  0  0
   -1.4662    0.3790   -1.9809 C   0  0  0  0  0  0  0  0  0  0  0  0
   -2.0691   -0.6820   -2.8830 C   0  0  0  0  0  0  0  0  0  0  0  0
   -0.1067    0.0843   -1.2979 C   0  0  0  0  0  0  0  0  0  0  0  0
    1.0546    0.4304   -2.2376 C   0  0  0  0  0  0  0  0  0  0  0  0
    0.0033   -1.3732   -0.7278 C   0  0  0  0  0  0  0  0  0  0  0  0
    0.3668   -2.5201   -1.7052 C   0  0  0  0  0  0  0  0  0  0  0  0
   -0.3401   -3.8128   -1.2778 C   0  0  0  0  0  0  0  0  0  0  0  0
    1.8763   -2.7867   -1.7472 C   0  0  0  0  0  0  0  0  0  0  0  0
    2.0266    1.5080    0.9413 C   0  0  0  0  0  0  0  0  0  0  0  0
    2.9161    1.3926    2.0169 C   0  0  0  0  0  0  0  0  0  0  0  0
    4.6143    2.1864    4.1375 H   0  0  0  0  0  0  0  0  0  0  0  0
    5.0751    0.8843    5.2409 H   0  0  0  0  0  0  0  0  0  0  0  0
    5.1917    0.5970    3.5006 H   0  0  0  0  0  0  0  0  0  0  0  0
    0.8811   -0.1920    4.2170 H   0  0  0  0  0  0  0  0  0  0  0  0
   -0.6884    0.0047    2.3384 H   0  0  0  0  0  0  0  0  0  0  0  0
   -0.0853    2.1528   -0.5555 H   0  0  0  0  0  0  0  0  0  0  0  0
   -1.3968    1.3133   -2.5561 H   0  0  0  0  0  0  0  0  0  0  0  0
   -2.3082   -1.6008   -2.3400 H   0  0  0  0  0  0  0  0  0  0  0  0
   -1.4036   -0.9157   -3.7186 H   0  0  0  0  0  0  0  0  0  0  0  0
   -3.0119   -0.3223   -3.3115 H   0  0  0  0  0  0  0  0  0  0  0  0
    1.0123    1.4789   -2.5547 H   0  0  0  0  0  0  0  0  0  0  0  0
    2.0220    0.2804   -1.7497 H   0  0  0  0  0  0  0  0  0  0  0  0
    1.0310   -0.1760   -3.1484 H   0  0  0  0  0  0  0  0  0  0  0  0
    0.7578   -1.3946    0.0667 H   0  0  0  0  0  0  0  0  0  0  0  0
   -0.9443   -1.6125   -0.2270 H   0  0  0  0  0  0  0  0  0  0  0  0
    0.0389   -2.2861   -2.7204 H   0  0  0  0  0  0  0  0  0  0  0  0
   -0.0433   -4.1123   -0.2667 H   0  0  0  0  0  0  0  0  0  0  0  0
   -1.4276   -3.6860   -1.2886 H   0  0  0  0  0  0  0  0  0  0  0  0
   -0.0968   -4.6343   -1.9602 H   0  0  0  0  0  0  0  0  0  0  0  0
    2.4355   -1.9186   -2.1017 H   0  0  0  0  0  0  0  0  0  0  0  0
    2.1016   -3.6159   -2.4270 H   0  0  0  0  0  0  0  0  0  0  0  0
    2.2612   -3.0544   -0.7570 H   0  0  0  0  0  0  0  0  0  0  0  0
    2.3698    2.0007    0.0340 H   0  0  0  0  0  0  0  0  0  0  0  0
    3.9161    1.7956    1.8967 H   0  0  0  0  0  0  0  0  0  0  0  0
  1  2  1  0
  2  3  1  0
  3  4  2  0
  4  5  1  0
  5  6  2  0
  6  7  1  0
  7  8  1  0
  8  9  1  0
  9 10  2  0
  9 11  1  0
 11 12  1  0
 11 13  1  0
 13 14  1  0
 13 15  1  0
 15 16  1  0
 16 17  1  0
 16 18  1  0
  6 19  1  0
 19 20  2  0
 20  3  1  0
 13  7  1  0
  1 21  1  0
  1 22  1  0
  1 23  1  0
  4 24  1  0
  5 25  1  0
  7 26  1  0
 11 27  1  0
 12 28  1  0
 12 29  1  0
 12 30  1  0
 14 31  1  0
 14 32  1  0
 14 33  1  0
 15 34  1  0
 15 35  1  0
 16 36  1  0
 17 37  1  0
 17 38  1  0
 17 39  1  0
 18 40  1  0
 18 41  1  0
 18 42  1  0
 19 43  1  0
 20 44  1  0
M  END
>  <energy_abs>  (50) 
46.3263017293624

>  <SMILES>  (50) 
COc1ccc(C2OC(=O)C(C)C2(C)CC(C)C)cc1

>  <cluster_no>  (50) 
50

>  <ccdc_id>  (50) 
33

>  <initial_conformation_id>  (50) 
266

>  <minimize_method>  (50) 
MMFF

$$$$
