
     RDKit          3D

 44 45  0  0  0  0  0  0  0  0999 V2000
    3.2291    2.8866    4.6747 C   0  0  0  0  0  0  0  0  0  0  0  0
    3.5368    1.7013    3.9517 O   0  0  0  0  0  0  0  0  0  0  0  0
    2.5754    1.2296    3.1021 C   0  0  0  0  0  0  0  0  0  0  0  0
    2.9100    0.0511    2.4366 C   0  0  0  0  0  0  0  0  0  0  0  0
    2.0176   -0.5402    1.5377 C   0  0  0  0  0  0  0  0  0  0  0  0
    0.7673    0.0406    1.2753 C   0  0  0  0  0  0  0  0  0  0  0  0
   -0.1729   -0.6265    0.2804 C   0  0  0  0  0  0  0  0  0  0  0  0
   -1.5416   -0.2899    0.5782 O   0  0  0  0  0  0  0  0  0  0  0  0
   -1.9938    0.6422   -0.3084 C   0  0  0  0  0  0  0  0  0  0  0  0
   -3.1054    1.1421   -0.2633 O   0  0  0  0  0  0  0  0  0  0  0  0
   -0.9027    0.9825   -1.2893 C   0  0  0  0  0  0  0  0  0  0  0  0
   -1.4559    1.3902   -2.6464 C   0  0  0  0  0  0  0  0  0  0  0  0
   -0.0034   -0.2788   -1.2241 C   0  0  0  0  0  0  0  0  0  0  0  0
    1.4259    0.0753   -1.6599 C   0  0  0  0  0  0  0  0  0  0  0  0
   -0.5726   -1.4324   -2.1279 C   0  0  0  0  0  0  0  0  0  0  0  0
    0.3302   -2.6489   -2.4572 C   0  0  0  0  0  0  0  0  0  0  0  0
   -0.3971   -3.5562   -3.4602 C   0  0  0  0  0  0  0  0  0  0  0  0
    0.7424   -3.4819   -1.2479 C   0  0  0  0  0  0  0  0  0  0  0  0
    0.4380    1.2212    1.9590 C   0  0  0  0  0  0  0  0  0  0  0  0
    1.3332    1.8115    2.8614 C   0  0  0  0  0  0  0  0  0  0  0  0
    4.0884    3.1234    5.3095 H   0  0  0  0  0  0  0  0  0  0  0  0
    2.3634    2.7373    5.3284 H   0  0  0  0  0  0  0  0  0  0  0  0
    3.0728    3.7326    3.9972 H   0  0  0  0  0  0  0  0  0  0  0  0
    3.8749   -0.4149    2.6226 H   0  0  0  0  0  0  0  0  0  0  0  0
    2.3153   -1.4631    1.0458 H   0  0  0  0  0  0  0  0  0  0  0  0
   -0.1062   -1.7028    0.4529 H   0  0  0  0  0  0  0  0  0  0  0  0
   -0.3674    1.8455   -0.8713 H   0  0  0  0  0  0  0  0  0  0  0  0
   -1.9373    2.3724   -2.5746 H   0  0  0  0  0  0  0  0  0  0  0  0
   -2.2238    0.6979   -3.0073 H   0  0  0  0  0  0  0  0  0  0  0  0
   -0.6614    1.4651   -3.3947 H   0  0  0  0  0  0  0  0  0  0  0  0
    2.1308   -0.7328   -1.4434 H   0  0  0  0  0  0  0  0  0  0  0  0
    1.4667    0.2737   -2.7368 H   0  0  0  0  0  0  0  0  0  0  0  0
    1.7961    0.9762   -1.1585 H   0  0  0  0  0  0  0  0  0  0  0  0
   -0.8297   -1.0028   -3.1032 H   0  0  0  0  0  0  0  0  0  0  0  0
   -1.5188   -1.7964   -1.7055 H   0  0  0  0  0  0  0  0  0  0  0  0
    1.2403   -2.2940   -2.9552 H   0  0  0  0  0  0  0  0  0  0  0  0
    0.2374   -4.3985   -3.7561 H   0  0  0  0  0  0  0  0  0  0  0  0
   -1.3206   -3.9610   -3.0320 H   0  0  0  0  0  0  0  0  0  0  0  0
   -0.6573   -3.0042   -4.3696 H   0  0  0  0  0  0  0  0  0  0  0  0
   -0.1287   -3.7974   -0.6645 H   0  0  0  0  0  0  0  0  0  0  0  0
    1.4214   -2.9273   -0.5970 H   0  0  0  0  0  0  0  0  0  0  0  0
    1.2776   -4.3851   -1.5618 H   0  0  0  0  0  0  0  0  0  0  0  0
   -0.5278    1.7012    1.8148 H   0  0  0  0  0  0  0  0  0  0  0  0
    1.0221    2.7229    3.3613 H   0  0  0  0  0  0  0  0  0  0  0  0
  1  2  1  0
  2  3  1  0
  3  4  2  0
  4  5  1  0
  5  6  2  0
  6  7  1  0
  7  8  1  0
  8  9  1  0
  9 10  2  0
  9 11  1  0
 11 12  1  0
 11 13  1  0
 13 14  1  0
 13 15  1  0
 15 16  1  0
 16 17  1  0
 16 18  1  0
  6 19  1  0
 19 20  2  0
 20  3  1  0
 13  7  1  0
  1 21  1  0
  1 22  1  0
  1 23  1  0
  4 24  1  0
  5 25  1  0
  7 26  1  0
 11 27  1  0
 12 28  1  0
 12 29  1  0
 12 30  1  0
 14 31  1  0
 14 32  1  0
 14 33  1  0
 15 34  1  0
 15 35  1  0
 16 36  1  0
 17 37  1  0
 17 38  1  0
 17 39  1  0
 18 40  1  0
 18 41  1  0
 18 42  1  0
 19 43  1  0
 20 44  1  0
M  END
>  <energy_abs>  (52) 
45.41378329628456

>  <SMILES>  (52) 
COc1ccc(C2OC(=O)C(C)C2(C)CC(C)C)cc1

>  <cluster_no>  (52) 
52

>  <ccdc_id>  (52) 
33

>  <initial_conformation_id>  (52) 
264

>  <minimize_method>  (52) 
MMFF

$$$$
