%NProcShared=1
%Mem=10GB

#p B3LYP/6-31G* opt freq

test

0  1
C           3.33560         0.84410         5.11670
O           3.74920         0.68500         3.76540
C           2.77110         0.73270         2.81120
C           3.22860         0.60930         1.49900
C           2.33540         0.64180         0.42470
C           0.95830         0.78730         0.64240
C           0.00670         0.81980        -0.53300
O          -1.02700         1.78810        -0.28690
C          -2.11800         1.47380        -1.04010
O          -3.12050         2.16460        -1.11130
C          -1.87500         0.17840        -1.77450
C          -3.15450        -0.62650        -1.95190
C          -0.74880        -0.47530        -0.92970
C          -1.33670        -1.22490         0.28240
C           0.09760        -1.41160        -1.84230
C           1.14670        -2.32000        -1.16120
C           2.39540        -2.43570        -2.04290
C           0.60010        -3.72780        -0.90060
C           0.50990         0.92360         1.96480
C           1.40630         0.89270         3.04030
H           2.67000         0.03060         5.42340
H           4.22880         0.79870         5.74730
H           2.86660         1.82110         5.27430
H           4.29310         0.49140         1.31080
H           2.73080         0.55260        -0.58460
H           0.56540         1.21070        -1.39620
H          -1.49020         0.45260        -2.76650
H          -3.70120        -0.74670        -1.01090
H          -2.94820        -1.61720        -2.36770
H          -3.83140        -0.11060        -2.64230
H          -0.55770        -1.59190         0.95710
H          -1.92200        -2.09430        -0.03530
H          -2.00160        -0.58600         0.87410
H           0.60020        -0.77990        -2.58770
H          -0.58250        -2.04740        -2.42490
H           1.45850        -1.89670        -0.20360
H           3.15060        -3.07090        -1.56760
H           2.15370        -2.86860        -3.01970
H           2.84780        -1.45270        -2.21000
H          -0.27060        -3.71090        -0.24120
H           1.36050        -4.35310        -0.42010
H           0.30550        -4.21900        -1.83460
H          -0.54930         1.06630         2.17280
H           1.00230         1.00170         4.04110

