
     RDKit          3D

 44 45  0  0  0  0  0  0  0  0999 V2000
    3.3356    0.8441    5.1167 C   0  0  0  0  0  0  0  0  0  0  0  0
    3.7492    0.6850    3.7654 O   0  0  0  0  0  0  0  0  0  0  0  0
    2.7711    0.7327    2.8112 C   0  0  0  0  0  0  0  0  0  0  0  0
    3.2286    0.6093    1.4990 C   0  0  0  0  0  0  0  0  0  0  0  0
    2.3354    0.6418    0.4247 C   0  0  0  0  0  0  0  0  0  0  0  0
    0.9583    0.7873    0.6424 C   0  0  0  0  0  0  0  0  0  0  0  0
    0.0067    0.8198   -0.5330 C   0  0  0  0  0  0  0  0  0  0  0  0
   -1.0270    1.7881   -0.2869 O   0  0  0  0  0  0  0  0  0  0  0  0
   -2.1180    1.4738   -1.0401 C   0  0  0  0  0  0  0  0  0  0  0  0
   -3.1205    2.1646   -1.1113 O   0  0  0  0  0  0  0  0  0  0  0  0
   -1.8750    0.1784   -1.7745 C   0  0  0  0  0  0  0  0  0  0  0  0
   -3.1545   -0.6265   -1.9519 C   0  0  0  0  0  0  0  0  0  0  0  0
   -0.7488   -0.4753   -0.9297 C   0  0  0  0  0  0  0  0  0  0  0  0
   -1.3367   -1.2249    0.2824 C   0  0  0  0  0  0  0  0  0  0  0  0
    0.0976   -1.4116   -1.8423 C   0  0  0  0  0  0  0  0  0  0  0  0
    1.1467   -2.3200   -1.1612 C   0  0  0  0  0  0  0  0  0  0  0  0
    2.3954   -2.4357   -2.0429 C   0  0  0  0  0  0  0  0  0  0  0  0
    0.6001   -3.7278   -0.9006 C   0  0  0  0  0  0  0  0  0  0  0  0
    0.5099    0.9236    1.9648 C   0  0  0  0  0  0  0  0  0  0  0  0
    1.4063    0.8927    3.0403 C   0  0  0  0  0  0  0  0  0  0  0  0
    2.6700    0.0306    5.4234 H   0  0  0  0  0  0  0  0  0  0  0  0
    4.2288    0.7987    5.7473 H   0  0  0  0  0  0  0  0  0  0  0  0
    2.8666    1.8211    5.2743 H   0  0  0  0  0  0  0  0  0  0  0  0
    4.2931    0.4914    1.3108 H   0  0  0  0  0  0  0  0  0  0  0  0
    2.7308    0.5526   -0.5846 H   0  0  0  0  0  0  0  0  0  0  0  0
    0.5654    1.2107   -1.3962 H   0  0  0  0  0  0  0  0  0  0  0  0
   -1.4902    0.4526   -2.7665 H   0  0  0  0  0  0  0  0  0  0  0  0
   -3.7012   -0.7467   -1.0109 H   0  0  0  0  0  0  0  0  0  0  0  0
   -2.9482   -1.6172   -2.3677 H   0  0  0  0  0  0  0  0  0  0  0  0
   -3.8314   -0.1106   -2.6423 H   0  0  0  0  0  0  0  0  0  0  0  0
   -0.5577   -1.5919    0.9571 H   0  0  0  0  0  0  0  0  0  0  0  0
   -1.9220   -2.0943   -0.0353 H   0  0  0  0  0  0  0  0  0  0  0  0
   -2.0016   -0.5860    0.8741 H   0  0  0  0  0  0  0  0  0  0  0  0
    0.6002   -0.7799   -2.5877 H   0  0  0  0  0  0  0  0  0  0  0  0
   -0.5825   -2.0474   -2.4249 H   0  0  0  0  0  0  0  0  0  0  0  0
    1.4585   -1.8967   -0.2036 H   0  0  0  0  0  0  0  0  0  0  0  0
    3.1506   -3.0709   -1.5676 H   0  0  0  0  0  0  0  0  0  0  0  0
    2.1537   -2.8686   -3.0197 H   0  0  0  0  0  0  0  0  0  0  0  0
    2.8478   -1.4527   -2.2100 H   0  0  0  0  0  0  0  0  0  0  0  0
   -0.2706   -3.7109   -0.2412 H   0  0  0  0  0  0  0  0  0  0  0  0
    1.3605   -4.3531   -0.4201 H   0  0  0  0  0  0  0  0  0  0  0  0
    0.3055   -4.2190   -1.8346 H   0  0  0  0  0  0  0  0  0  0  0  0
   -0.5493    1.0663    2.1728 H   0  0  0  0  0  0  0  0  0  0  0  0
    1.0023    1.0017    4.0411 H   0  0  0  0  0  0  0  0  0  0  0  0
  1  2  1  0
  2  3  1  0
  3  4  2  0
  4  5  1  0
  5  6  2  0
  6  7  1  0
  7  8  1  0
  8  9  1  0
  9 10  2  0
  9 11  1  0
 11 12  1  0
 11 13  1  0
 13 14  1  0
 13 15  1  0
 15 16  1  0
 16 17  1  0
 16 18  1  0
  6 19  1  0
 19 20  2  0
 20  3  1  0
 13  7  1  0
  1 21  1  0
  1 22  1  0
  1 23  1  0
  4 24  1  0
  5 25  1  0
  7 26  1  0
 11 27  1  0
 12 28  1  0
 12 29  1  0
 12 30  1  0
 14 31  1  0
 14 32  1  0
 14 33  1  0
 15 34  1  0
 15 35  1  0
 16 36  1  0
 17 37  1  0
 17 38  1  0
 17 39  1  0
 18 40  1  0
 18 41  1  0
 18 42  1  0
 19 43  1  0
 20 44  1  0
M  END
>  <energy_abs>  (53) 
44.74972944177319

>  <SMILES>  (53) 
COc1ccc(C2OC(=O)C(C)C2(C)CC(C)C)cc1

>  <cluster_no>  (53) 
53

>  <ccdc_id>  (53) 
33

>  <initial_conformation_id>  (53) 
263

>  <minimize_method>  (53) 
MMFF

$$$$
