
     RDKit          3D

 44 45  0  0  0  0  0  0  0  0999 V2000
    2.8746    2.1935    5.0055 C   0  0  0  0  0  0  0  0  0  0  0  0
    2.7581    0.9135    4.3964 O   0  0  0  0  0  0  0  0  0  0  0  0
    2.2299    0.8775    3.1372 C   0  0  0  0  0  0  0  0  0  0  0  0
    1.8237    1.9697    2.3827 C   0  0  0  0  0  0  0  0  0  0  0  0
    1.2961    1.7807    1.0967 C   0  0  0  0  0  0  0  0  0  0  0  0
    1.1340    0.4987    0.5275 C   0  0  0  0  0  0  0  0  0  0  0  0
    0.5778    0.3446   -0.8943 C   0  0  0  0  0  0  0  0  0  0  0  0
   -0.0140    1.6163   -1.2599 O   0  0  0  0  0  0  0  0  0  0  0  0
   -1.3527    1.5870   -0.9835 C   0  0  0  0  0  0  0  0  0  0  0  0
   -2.0653    2.5768   -0.9524 O   0  0  0  0  0  0  0  0  0  0  0  0
   -1.8037    0.1641   -0.7556 C   0  0  0  0  0  0  0  0  0  0  0  0
   -2.2244   -0.0275    0.6960 C   0  0  0  0  0  0  0  0  0  0  0  0
   -0.5729   -0.6342   -1.2682 C   0  0  0  0  0  0  0  0  0  0  0  0
   -0.7207   -0.6766   -2.8233 C   0  0  0  0  0  0  0  0  0  0  0  0
   -0.5375   -2.0856   -0.7299 C   0  0  0  0  0  0  0  0  0  0  0  0
    0.4290   -3.1577   -1.3102 C   0  0  0  0  0  0  0  0  0  0  0  0
    1.8348   -2.7082   -1.7056 C   0  0  0  0  0  0  0  0  0  0  0  0
   -0.2049   -3.9404   -2.4685 C   0  0  0  0  0  0  0  0  0  0  0  0
    1.5851   -0.5788    1.2980 C   0  0  0  0  0  0  0  0  0  0  0  0
    2.1135   -0.3940    2.5838 C   0  0  0  0  0  0  0  0  0  0  0  0
    3.5609    2.8361    4.4443 H   0  0  0  0  0  0  0  0  0  0  0  0
    3.2953    2.0506    6.0055 H   0  0  0  0  0  0  0  0  0  0  0  0
    1.8940    2.6670    5.1213 H   0  0  0  0  0  0  0  0  0  0  0  0
    1.9052    2.9863    2.7530 H   0  0  0  0  0  0  0  0  0  0  0  0
    1.0127    2.6764    0.5437 H   0  0  0  0  0  0  0  0  0  0  0  0
    1.4375    0.1936   -1.5574 H   0  0  0  0  0  0  0  0  0  0  0  0
   -2.6717   -0.0271   -1.3988 H   0  0  0  0  0  0  0  0  0  0  0  0
   -1.4199    0.1838    1.4038 H   0  0  0  0  0  0  0  0  0  0  0  0
   -2.5794   -1.0470    0.8737 H   0  0  0  0  0  0  0  0  0  0  0  0
   -3.0477    0.6521    0.9442 H   0  0  0  0  0  0  0  0  0  0  0  0
    0.1836   -1.0346   -3.3170 H   0  0  0  0  0  0  0  0  0  0  0  0
   -0.9293    0.3086   -3.2561 H   0  0  0  0  0  0  0  0  0  0  0  0
   -1.5531   -1.3271   -3.1153 H   0  0  0  0  0  0  0  0  0  0  0  0
   -0.3963   -2.0633    0.3547 H   0  0  0  0  0  0  0  0  0  0  0  0
   -1.5544   -2.4930   -0.8344 H   0  0  0  0  0  0  0  0  0  0  0  0
    0.5592   -3.8941   -0.5038 H   0  0  0  0  0  0  0  0  0  0  0  0
    2.3592   -2.2135   -0.8889 H   0  0  0  0  0  0  0  0  0  0  0  0
    2.4412   -3.5793   -1.9812 H   0  0  0  0  0  0  0  0  0  0  0  0
    1.8405   -2.0388   -2.5671 H   0  0  0  0  0  0  0  0  0  0  0  0
   -1.1977   -4.3136   -2.1963 H   0  0  0  0  0  0  0  0  0  0  0  0
   -0.3023   -3.3355   -3.3732 H   0  0  0  0  0  0  0  0  0  0  0  0
    0.4108   -4.8106   -2.7230 H   0  0  0  0  0  0  0  0  0  0  0  0
    1.5537   -1.5976    0.9365 H   0  0  0  0  0  0  0  0  0  0  0  0
    2.4442   -1.2582    3.1560 H   0  0  0  0  0  0  0  0  0  0  0  0
  1  2  1  0
  2  3  1  0
  3  4  2  0
  4  5  1  0
  5  6  2  0
  6  7  1  0
  7  8  1  0
  8  9  1  0
  9 10  2  0
  9 11  1  0
 11 12  1  0
 11 13  1  0
 13 14  1  0
 13 15  1  0
 15 16  1  0
 16 17  1  0
 16 18  1  0
  6 19  1  0
 19 20  2  0
 20  3  1  0
 13  7  1  0
  1 21  1  0
  1 22  1  0
  1 23  1  0
  4 24  1  0
  5 25  1  0
  7 26  1  0
 11 27  1  0
 12 28  1  0
 12 29  1  0
 12 30  1  0
 14 31  1  0
 14 32  1  0
 14 33  1  0
 15 34  1  0
 15 35  1  0
 16 36  1  0
 17 37  1  0
 17 38  1  0
 17 39  1  0
 18 40  1  0
 18 41  1  0
 18 42  1  0
 19 43  1  0
 20 44  1  0
M  END
>  <energy_abs>  (55) 
56.249711392049925

>  <SMILES>  (55) 
COc1ccc(C2OC(=O)C(C)C2(C)CC(C)C)cc1

>  <cluster_no>  (55) 
55

>  <ccdc_id>  (55) 
33

>  <initial_conformation_id>  (55) 
261

>  <minimize_method>  (55) 
MMFF

$$$$
