%NProcShared=1
%Mem=10GB

#p B3LYP/6-31G* opt freq

test

0  1
C           3.21640         2.73670         4.69870
O           3.50510         1.54820         3.97320
C           2.55730         1.12170         3.08530
C           1.34550         1.75080         2.81030
C           0.46100         1.20430         1.87040
C           0.77210         0.02200         1.18160
C          -0.15600        -0.60470         0.14710
O          -1.51900        -0.20910         0.38190
C          -1.86750         0.77790        -0.49720
O          -2.94260         1.35350        -0.48460
C          -0.71420         1.06090        -1.42780
C          -1.16870         1.51310        -2.80800
C           0.08230        -0.26790        -1.34240
C           1.54810        -0.00390        -1.72640
C          -0.55500        -1.33170        -2.31330
C          -0.24920        -2.84890        -2.23000
C           1.19500        -3.22640        -1.93260
C          -1.21280        -3.60810        -1.31090
C           1.99060        -0.60820         1.48060
C           2.87210        -0.06060         2.41680
H           3.11410         3.59460         4.02600
H           2.32410         2.61280         5.32120
H           4.06170         2.93530         5.36470
H           1.04990         2.66640         3.31190
H          -0.48200         1.72010         1.70190
H          -0.11300        -1.67930         0.32120
H          -0.14070         1.88020        -0.97450
H          -1.92940         0.85300        -3.23640
H          -1.62260         2.50870        -2.74570
H          -0.32520         1.57550        -3.50190
H           1.65060         0.16230        -2.80450
H           1.94190         0.89240        -1.23360
H           2.20690        -0.83010        -1.45460
H          -0.28180        -1.02930        -3.33510
H          -1.64860        -1.23420        -2.28220
H          -0.46160        -3.23700        -3.23740
H           1.49040        -2.94710        -0.91840
H           1.33300        -4.30990        -2.02200
H           1.87670        -2.75640        -2.64800
H          -1.02980        -3.41840        -0.25200
H          -1.10900        -4.68820        -1.46540
H          -2.25350        -3.34730        -1.53020
H           2.26940        -1.53730         0.98820
H           3.81220        -0.56400         2.63010

