
     RDKit          3D

 44 45  0  0  0  0  0  0  0  0999 V2000
    3.2164    2.7367    4.6987 C   0  0  0  0  0  0  0  0  0  0  0  0
    3.5051    1.5482    3.9732 O   0  0  0  0  0  0  0  0  0  0  0  0
    2.5573    1.1217    3.0853 C   0  0  0  0  0  0  0  0  0  0  0  0
    1.3455    1.7508    2.8103 C   0  0  0  0  0  0  0  0  0  0  0  0
    0.4610    1.2043    1.8704 C   0  0  0  0  0  0  0  0  0  0  0  0
    0.7721    0.0220    1.1816 C   0  0  0  0  0  0  0  0  0  0  0  0
   -0.1560   -0.6047    0.1471 C   0  0  0  0  0  0  0  0  0  0  0  0
   -1.5190   -0.2091    0.3819 O   0  0  0  0  0  0  0  0  0  0  0  0
   -1.8675    0.7779   -0.4972 C   0  0  0  0  0  0  0  0  0  0  0  0
   -2.9426    1.3535   -0.4846 O   0  0  0  0  0  0  0  0  0  0  0  0
   -0.7142    1.0609   -1.4278 C   0  0  0  0  0  0  0  0  0  0  0  0
   -1.1687    1.5131   -2.8080 C   0  0  0  0  0  0  0  0  0  0  0  0
    0.0823   -0.2679   -1.3424 C   0  0  0  0  0  0  0  0  0  0  0  0
    1.5481   -0.0039   -1.7264 C   0  0  0  0  0  0  0  0  0  0  0  0
   -0.5550   -1.3317   -2.3133 C   0  0  0  0  0  0  0  0  0  0  0  0
   -0.2492   -2.8489   -2.2300 C   0  0  0  0  0  0  0  0  0  0  0  0
    1.1950   -3.2264   -1.9326 C   0  0  0  0  0  0  0  0  0  0  0  0
   -1.2128   -3.6081   -1.3109 C   0  0  0  0  0  0  0  0  0  0  0  0
    1.9906   -0.6082    1.4806 C   0  0  0  0  0  0  0  0  0  0  0  0
    2.8721   -0.0606    2.4168 C   0  0  0  0  0  0  0  0  0  0  0  0
    3.1141    3.5946    4.0260 H   0  0  0  0  0  0  0  0  0  0  0  0
    2.3241    2.6128    5.3212 H   0  0  0  0  0  0  0  0  0  0  0  0
    4.0617    2.9353    5.3647 H   0  0  0  0  0  0  0  0  0  0  0  0
    1.0499    2.6664    3.3119 H   0  0  0  0  0  0  0  0  0  0  0  0
   -0.4820    1.7201    1.7019 H   0  0  0  0  0  0  0  0  0  0  0  0
   -0.1130   -1.6793    0.3212 H   0  0  0  0  0  0  0  0  0  0  0  0
   -0.1407    1.8802   -0.9745 H   0  0  0  0  0  0  0  0  0  0  0  0
   -1.9294    0.8530   -3.2364 H   0  0  0  0  0  0  0  0  0  0  0  0
   -1.6226    2.5087   -2.7457 H   0  0  0  0  0  0  0  0  0  0  0  0
   -0.3252    1.5755   -3.5019 H   0  0  0  0  0  0  0  0  0  0  0  0
    1.6506    0.1623   -2.8045 H   0  0  0  0  0  0  0  0  0  0  0  0
    1.9419    0.8924   -1.2336 H   0  0  0  0  0  0  0  0  0  0  0  0
    2.2069   -0.8301   -1.4546 H   0  0  0  0  0  0  0  0  0  0  0  0
   -0.2818   -1.0293   -3.3351 H   0  0  0  0  0  0  0  0  0  0  0  0
   -1.6486   -1.2342   -2.2822 H   0  0  0  0  0  0  0  0  0  0  0  0
   -0.4616   -3.2370   -3.2374 H   0  0  0  0  0  0  0  0  0  0  0  0
    1.4904   -2.9471   -0.9184 H   0  0  0  0  0  0  0  0  0  0  0  0
    1.3330   -4.3099   -2.0220 H   0  0  0  0  0  0  0  0  0  0  0  0
    1.8767   -2.7564   -2.6480 H   0  0  0  0  0  0  0  0  0  0  0  0
   -1.0298   -3.4184   -0.2520 H   0  0  0  0  0  0  0  0  0  0  0  0
   -1.1090   -4.6882   -1.4654 H   0  0  0  0  0  0  0  0  0  0  0  0
   -2.2535   -3.3473   -1.5302 H   0  0  0  0  0  0  0  0  0  0  0  0
    2.2694   -1.5373    0.9882 H   0  0  0  0  0  0  0  0  0  0  0  0
    3.8122   -0.5640    2.6301 H   0  0  0  0  0  0  0  0  0  0  0  0
  1  2  1  0
  2  3  1  0
  3  4  2  0
  4  5  1  0
  5  6  2  0
  6  7  1  0
  7  8  1  0
  8  9  1  0
  9 10  2  0
  9 11  1  0
 11 12  1  0
 11 13  1  0
 13 14  1  0
 13 15  1  0
 15 16  1  0
 16 17  1  0
 16 18  1  0
  6 19  1  0
 19 20  2  0
 20  3  1  0
 13  7  1  0
  1 21  1  0
  1 22  1  0
  1 23  1  0
  4 24  1  0
  5 25  1  0
  7 26  1  0
 11 27  1  0
 12 28  1  0
 12 29  1  0
 12 30  1  0
 14 31  1  0
 14 32  1  0
 14 33  1  0
 15 34  1  0
 15 35  1  0
 16 36  1  0
 17 37  1  0
 17 38  1  0
 17 39  1  0
 18 40  1  0
 18 41  1  0
 18 42  1  0
 19 43  1  0
 20 44  1  0
M  END
>  <energy_abs>  (56) 
49.691933631020746

>  <SMILES>  (56) 
COc1ccc(C2OC(=O)C(C)C2(C)CC(C)C)cc1

>  <cluster_no>  (56) 
56

>  <ccdc_id>  (56) 
33

>  <initial_conformation_id>  (56) 
260

>  <minimize_method>  (56) 
MMFF

$$$$
