%NProcShared=1
%Mem=10GB

#p B3LYP/6-31G* opt freq

test

0  1
C           3.44160         3.33370         4.29550
O           3.52270         1.94930         3.98050
C           2.54830         1.44390         3.16560
C           2.65620         0.07870         2.90240
C           1.72570        -0.56610         2.08300
C           0.66780         0.14580         1.49490
C          -0.32420        -0.59270         0.61000
O          -1.57790         0.10300         0.57530
C          -1.74430         0.71280        -0.62630
O          -2.66050         1.48100        -0.87420
C          -0.65180         0.32690        -1.58820
C           0.20870         1.54300        -1.90770
C           0.04240        -0.85880        -0.88350
C           1.55350        -0.95720        -1.14160
C          -0.65080        -2.21390        -1.29500
C          -0.22110        -2.91560        -2.60780
C          -0.48240        -2.10540        -3.87500
C          -0.94770        -4.26320        -2.71890
C           0.56050         1.51500         1.78020
C           1.49360         2.15940         2.60340
H           3.53580         3.94950         3.39490
H           2.51760         3.56220         4.83680
H           4.28140         3.57640         4.95370
H           3.47090        -0.49040         3.34400
H           1.83710        -1.63450         1.90950
H          -0.53520        -1.53830         1.12560
H          -1.15100         0.00550        -2.50520
H           0.71690         1.93830        -1.02470
H          -0.40690         2.35490        -2.31110
H           0.96490         1.30100        -2.66110
H           2.09970        -0.07950        -0.78260
H           1.97930        -1.83780        -0.64810
H           1.77570        -1.03720        -2.21020
H          -0.45380        -2.93930        -0.49230
H          -1.74110        -2.07750        -1.30440
H           0.85110        -3.13920        -2.55890
H          -1.53640        -1.81950        -3.95430
H           0.12970        -1.20020        -3.90700
H          -0.22900        -2.68960        -4.76670
H          -2.03270        -4.12550        -2.78100
H          -0.62350        -4.80880        -3.61160
H          -0.73430        -4.89490        -1.85010
H          -0.25840         2.10700         1.37600
H           1.35970         3.22030         2.78730

