%NProcShared=1
%Mem=10GB

#p B3LYP/6-31G* opt freq

test

0  1
C           4.47880         1.33850         4.18990
O           3.56070         2.12880         3.44570
C           2.53980         1.46800         2.82170
C           1.65920         2.28510         2.11420
C           0.56990         1.74020         1.42640
C           0.34470         0.35670         1.41350
C          -0.83370        -0.27820         0.69060
O          -1.87360         0.69300         0.47970
C          -1.95090         1.02510        -0.83840
O          -2.70010         1.88240        -1.27900
C          -0.97340         0.21810        -1.65710
C           0.15720         1.14400        -2.09380
C          -0.63740        -0.95080        -0.70560
C          -1.76170        -2.01700        -0.82610
C           0.75670        -1.61270        -0.89480
C           1.06490        -2.58890        -2.06300
C           0.58500        -4.02070        -1.79760
C           0.63790        -2.13550        -3.45440
C           1.22300        -0.45150         2.15550
C           2.31350         0.09460         2.84500
H           5.00340         0.62800         3.54260
H           3.97750         0.82490         5.01700
H           5.22670         2.01120         4.62050
H           1.81540         3.36150         2.10340
H          -0.10140         2.42400         0.91060
H          -1.25590        -1.00920         1.39380
H          -1.49980        -0.14840        -2.54550
H           0.70440         1.57060        -1.25210
H          -0.24220         1.98690        -2.66980
H           0.88110         0.63580        -2.73090
H          -2.74360        -1.61390        -0.55080
H          -1.56780        -2.86430        -0.15900
H          -1.86220        -2.39270        -1.84720
H           0.98410        -2.17350         0.02010
H           1.51520        -0.82040        -0.93460
H           2.16230        -2.66060        -2.09030
H           1.06200        -4.71400        -2.50000
H          -0.49370        -4.13350        -1.92440
H           0.85120        -4.34750        -0.78720
H          -0.44200        -1.99870        -3.53760
H           1.13430        -1.20450        -3.73520
H           0.92740        -2.88130        -4.20380
H           1.06220        -1.52630         2.21590
H           2.95940        -0.58160         3.39480

