
     RDKit          3D

 44 45  0  0  0  0  0  0  0  0999 V2000
    4.4151    0.7363    4.3353 C   0  0  0  0  0  0  0  0  0  0  0  0
    3.7969    1.6055    3.3953 O   0  0  0  0  0  0  0  0  0  0  0  0
    2.7165    1.1145    2.7169 C   0  0  0  0  0  0  0  0  0  0  0  0
    2.1338    2.0081    1.8190 C   0  0  0  0  0  0  0  0  0  0  0  0
    1.0229    1.6340    1.0572 C   0  0  0  0  0  0  0  0  0  0  0  0
    0.4777    0.3462    1.1619 C   0  0  0  0  0  0  0  0  0  0  0  0
   -0.7281   -0.0807    0.3507 C   0  0  0  0  0  0  0  0  0  0  0  0
   -1.7050    0.9749    0.4263 O   0  0  0  0  0  0  0  0  0  0  0  0
   -2.5120    0.9313   -0.6686 C   0  0  0  0  0  0  0  0  0  0  0  0
   -3.4645    1.6718   -0.8468 O   0  0  0  0  0  0  0  0  0  0  0  0
   -2.0687   -0.1830   -1.5795 C   0  0  0  0  0  0  0  0  0  0  0  0
   -2.3414    0.1213   -3.0457 C   0  0  0  0  0  0  0  0  0  0  0  0
   -0.5809   -0.3849   -1.1622 C   0  0  0  0  0  0  0  0  0  0  0  0
    0.3112    0.6221   -1.9204 C   0  0  0  0  0  0  0  0  0  0  0  0
   -0.1804   -1.8529   -1.4980 C   0  0  0  0  0  0  0  0  0  0  0  0
    1.0897   -2.4903   -0.8975 C   0  0  0  0  0  0  0  0  0  0  0  0
    1.1600   -3.9618   -1.3359 C   0  0  0  0  0  0  0  0  0  0  0  0
    2.3957   -1.8022   -1.2819 C   0  0  0  0  0  0  0  0  0  0  0  0
    1.0544   -0.5330    2.0913 C   0  0  0  0  0  0  0  0  0  0  0  0
    2.1675   -0.1579    2.8551 C   0  0  0  0  0  0  0  0  0  0  0  0
    4.8187   -0.1548    3.8432 H   0  0  0  0  0  0  0  0  0  0  0  0
    5.2534    1.2748    4.7877 H   0  0  0  0  0  0  0  0  0  0  0  0
    3.7215    0.4653    5.1382 H   0  0  0  0  0  0  0  0  0  0  0  0
    2.5419    3.0108    1.7162 H   0  0  0  0  0  0  0  0  0  0  0  0
    0.5811    2.3697    0.3884 H   0  0  0  0  0  0  0  0  0  0  0  0
   -1.1887   -0.9421    0.8554 H   0  0  0  0  0  0  0  0  0  0  0  0
   -2.6671   -1.0580   -1.2904 H   0  0  0  0  0  0  0  0  0  0  0  0
   -1.9089   -0.6438   -3.6972 H   0  0  0  0  0  0  0  0  0  0  0  0
   -1.9539    1.1004   -3.3457 H   0  0  0  0  0  0  0  0  0  0  0  0
   -3.4213    0.1440   -3.2313 H   0  0  0  0  0  0  0  0  0  0  0  0
   -0.0849    1.6420   -1.8602 H   0  0  0  0  0  0  0  0  0  0  0  0
    1.3307    0.6596   -1.5373 H   0  0  0  0  0  0  0  0  0  0  0  0
    0.3857    0.3643   -2.9829 H   0  0  0  0  0  0  0  0  0  0  0  0
   -0.1306   -1.9534   -2.5914 H   0  0  0  0  0  0  0  0  0  0  0  0
   -1.0156   -2.5000   -1.1928 H   0  0  0  0  0  0  0  0  0  0  0  0
    1.0047   -2.4987    0.1914 H   0  0  0  0  0  0  0  0  0  0  0  0
    0.2569   -4.5035   -1.0349 H   0  0  0  0  0  0  0  0  0  0  0  0
    1.2622   -4.0479   -2.4232 H   0  0  0  0  0  0  0  0  0  0  0  0
    2.0153   -4.4664   -0.8736 H   0  0  0  0  0  0  0  0  0  0  0  0
    3.2589   -2.4234   -1.0175 H   0  0  0  0  0  0  0  0  0  0  0  0
    2.5232   -0.8608   -0.7442 H   0  0  0  0  0  0  0  0  0  0  0  0
    2.4429   -1.6050   -2.3577 H   0  0  0  0  0  0  0  0  0  0  0  0
    0.6377   -1.5269    2.2416 H   0  0  0  0  0  0  0  0  0  0  0  0
    2.5742   -0.8827    3.5523 H   0  0  0  0  0  0  0  0  0  0  0  0
  1  2  1  0
  2  3  1  0
  3  4  2  0
  4  5  1  0
  5  6  2  0
  6  7  1  0
  7  8  1  0
  8  9  1  0
  9 10  2  0
  9 11  1  0
 11 12  1  0
 11 13  1  0
 13 14  1  0
 13 15  1  0
 15 16  1  0
 16 17  1  0
 16 18  1  0
  6 19  1  0
 19 20  2  0
 20  3  1  0
 13  7  1  0
  1 21  1  0
  1 22  1  0
  1 23  1  0
  4 24  1  0
  5 25  1  0
  7 26  1  0
 11 27  1  0
 12 28  1  0
 12 29  1  0
 12 30  1  0
 14 31  1  0
 14 32  1  0
 14 33  1  0
 15 34  1  0
 15 35  1  0
 16 36  1  0
 17 37  1  0
 17 38  1  0
 17 39  1  0
 18 40  1  0
 18 41  1  0
 18 42  1  0
 19 43  1  0
 20 44  1  0
M  END
>  <energy_abs>  (59) 
46.78432016851521

>  <SMILES>  (59) 
COc1ccc(C2OC(=O)C(C)C2(C)CC(C)C)cc1

>  <cluster_no>  (59) 
59

>  <ccdc_id>  (59) 
33

>  <initial_conformation_id>  (59) 
256

>  <minimize_method>  (59) 
MMFF

$$$$
