%NProcShared=1
%Mem=10GB

#p B3LYP/6-31G* opt freq

test

0  1
C           5.87070         2.32100         0.15080
O           4.68320         2.77660         0.78610
C           3.63250         1.90320         0.83320
C           2.49780         2.38800         1.48420
C           1.34990         1.59980         1.60370
C           1.31160         0.30560         1.06700
C           0.07750        -0.56850         1.16920
O          -0.70640        -0.21590         2.31840
C          -2.00870        -0.54430         2.09100
O          -2.89450        -0.44270         2.92420
C          -2.18380        -1.07550         0.68840
C          -2.33620        -2.59120         0.77510
C          -0.91870        -0.53150        -0.01630
C          -1.20560         0.92060        -0.46900
C          -0.40610        -1.38690        -1.20830
C          -1.36570        -1.53500        -2.41390
C          -1.07570        -0.50580        -3.51210
C          -1.23190        -2.93670        -3.02280
C           2.46050        -0.17630         0.42090
C           3.61000         0.61490         0.30270
H           5.69290         2.10190        -0.90730
H           6.60880         3.12700         0.20410
H           6.28830         1.45220         0.67030
H           2.50680         3.38980         1.90720
H           0.48680         2.01030         2.12440
H           0.42430        -1.59480         1.35520
H          -3.09150        -0.63880         0.25670
H          -1.44800        -3.07220         1.19770
H          -2.53210        -3.02900        -0.20650
H          -3.18070        -2.85550         1.42190
H          -1.43130         1.57990         0.37660
H          -2.07410         0.96360        -1.13440
H          -0.35120         1.34870        -1.00420
H           0.54310        -0.97150        -1.56920
H          -0.15140        -2.38410        -0.82580
H          -2.40420        -1.41190        -2.08730
H          -1.76470        -0.63720        -4.35380
H          -0.05550        -0.61340        -3.89690
H          -1.19120         0.52010        -3.15710
H          -0.21110        -3.12080        -3.37530
H          -1.48050        -3.70970        -2.28860
H          -1.91170        -3.05860        -3.87300
H           2.47600        -1.18120         0.00350
H           4.46920         0.19260        -0.20750

