
     RDKit          3D

 44 45  0  0  0  0  0  0  0  0999 V2000
    5.8707    2.3210    0.1508 C   0  0  0  0  0  0  0  0  0  0  0  0
    4.6832    2.7766    0.7861 O   0  0  0  0  0  0  0  0  0  0  0  0
    3.6325    1.9032    0.8332 C   0  0  0  0  0  0  0  0  0  0  0  0
    2.4978    2.3880    1.4842 C   0  0  0  0  0  0  0  0  0  0  0  0
    1.3499    1.5998    1.6037 C   0  0  0  0  0  0  0  0  0  0  0  0
    1.3116    0.3056    1.0670 C   0  0  0  0  0  0  0  0  0  0  0  0
    0.0775   -0.5685    1.1692 C   0  0  0  0  0  0  0  0  0  0  0  0
   -0.7064   -0.2159    2.3184 O   0  0  0  0  0  0  0  0  0  0  0  0
   -2.0087   -0.5443    2.0910 C   0  0  0  0  0  0  0  0  0  0  0  0
   -2.8945   -0.4427    2.9242 O   0  0  0  0  0  0  0  0  0  0  0  0
   -2.1838   -1.0755    0.6884 C   0  0  0  0  0  0  0  0  0  0  0  0
   -2.3362   -2.5912    0.7751 C   0  0  0  0  0  0  0  0  0  0  0  0
   -0.9187   -0.5315   -0.0163 C   0  0  0  0  0  0  0  0  0  0  0  0
   -1.2056    0.9206   -0.4690 C   0  0  0  0  0  0  0  0  0  0  0  0
   -0.4061   -1.3869   -1.2083 C   0  0  0  0  0  0  0  0  0  0  0  0
   -1.3657   -1.5350   -2.4139 C   0  0  0  0  0  0  0  0  0  0  0  0
   -1.0757   -0.5058   -3.5121 C   0  0  0  0  0  0  0  0  0  0  0  0
   -1.2319   -2.9367   -3.0228 C   0  0  0  0  0  0  0  0  0  0  0  0
    2.4605   -0.1763    0.4209 C   0  0  0  0  0  0  0  0  0  0  0  0
    3.6100    0.6149    0.3027 C   0  0  0  0  0  0  0  0  0  0  0  0
    5.6929    2.1019   -0.9073 H   0  0  0  0  0  0  0  0  0  0  0  0
    6.6088    3.1270    0.2041 H   0  0  0  0  0  0  0  0  0  0  0  0
    6.2883    1.4522    0.6703 H   0  0  0  0  0  0  0  0  0  0  0  0
    2.5068    3.3898    1.9072 H   0  0  0  0  0  0  0  0  0  0  0  0
    0.4868    2.0103    2.1244 H   0  0  0  0  0  0  0  0  0  0  0  0
    0.4243   -1.5948    1.3552 H   0  0  0  0  0  0  0  0  0  0  0  0
   -3.0915   -0.6388    0.2567 H   0  0  0  0  0  0  0  0  0  0  0  0
   -1.4480   -3.0722    1.1977 H   0  0  0  0  0  0  0  0  0  0  0  0
   -2.5321   -3.0290   -0.2065 H   0  0  0  0  0  0  0  0  0  0  0  0
   -3.1807   -2.8555    1.4219 H   0  0  0  0  0  0  0  0  0  0  0  0
   -1.4313    1.5799    0.3766 H   0  0  0  0  0  0  0  0  0  0  0  0
   -2.0741    0.9636   -1.1344 H   0  0  0  0  0  0  0  0  0  0  0  0
   -0.3512    1.3487   -1.0042 H   0  0  0  0  0  0  0  0  0  0  0  0
    0.5431   -0.9715   -1.5692 H   0  0  0  0  0  0  0  0  0  0  0  0
   -0.1514   -2.3841   -0.8258 H   0  0  0  0  0  0  0  0  0  0  0  0
   -2.4042   -1.4119   -2.0873 H   0  0  0  0  0  0  0  0  0  0  0  0
   -1.7647   -0.6372   -4.3538 H   0  0  0  0  0  0  0  0  0  0  0  0
   -0.0555   -0.6134   -3.8969 H   0  0  0  0  0  0  0  0  0  0  0  0
   -1.1912    0.5201   -3.1571 H   0  0  0  0  0  0  0  0  0  0  0  0
   -0.2111   -3.1208   -3.3753 H   0  0  0  0  0  0  0  0  0  0  0  0
   -1.4805   -3.7097   -2.2886 H   0  0  0  0  0  0  0  0  0  0  0  0
   -1.9117   -3.0586   -3.8730 H   0  0  0  0  0  0  0  0  0  0  0  0
    2.4760   -1.1812    0.0035 H   0  0  0  0  0  0  0  0  0  0  0  0
    4.4692    0.1926   -0.2075 H   0  0  0  0  0  0  0  0  0  0  0  0
  1  2  1  0
  2  3  1  0
  3  4  2  0
  4  5  1  0
  5  6  2  0
  6  7  1  0
  7  8  1  0
  8  9  1  0
  9 10  2  0
  9 11  1  0
 11 12  1  0
 11 13  1  0
 13 14  1  0
 13 15  1  0
 15 16  1  0
 16 17  1  0
 16 18  1  0
  6 19  1  0
 19 20  2  0
 20  3  1  0
 13  7  1  0
  1 21  1  0
  1 22  1  0
  1 23  1  0
  4 24  1  0
  5 25  1  0
  7 26  1  0
 11 27  1  0
 12 28  1  0
 12 29  1  0
 12 30  1  0
 14 31  1  0
 14 32  1  0
 14 33  1  0
 15 34  1  0
 15 35  1  0
 16 36  1  0
 17 37  1  0
 17 38  1  0
 17 39  1  0
 18 40  1  0
 18 41  1  0
 18 42  1  0
 19 43  1  0
 20 44  1  0
M  END
>  <energy_abs>  (6) 
43.90533836700207

>  <SMILES>  (6) 
COc1ccc(C2OC(=O)C(C)C2(C)CC(C)C)cc1

>  <cluster_no>  (6) 
6

>  <ccdc_id>  (6) 
33

>  <initial_conformation_id>  (6) 
153

>  <minimize_method>  (6) 
MMFF

$$$$
