%NProcShared=1
%Mem=10GB

#p B3LYP/6-31G* opt freq

test

0  1
C           4.57620         2.04100         4.26990
O           3.55470         2.69160         3.52850
C           2.63860         1.88640         2.90770
C           2.55330         0.50300         3.02890
C           1.56550        -0.20120         2.33220
C           0.64720         0.45910         1.49200
C          -0.38920        -0.36150         0.74320
O          -1.60650         0.38590         0.59460
C          -1.74390         0.79350        -0.69780
O          -2.67090         1.48050        -1.09540
C          -0.56550         0.32660        -1.51150
C          -0.91650         0.12800        -2.96640
C          -0.04850        -0.87910        -0.70380
C           1.45800        -1.06430        -0.92270
C          -0.84550        -2.23470        -0.87490
C          -0.69340        -3.29300        -2.00000
C           0.72180        -3.70660        -2.38460
C          -1.53310        -3.04540        -3.24900
C           0.73690         1.85200         1.39050
C           1.72130         2.55740         2.09090
H           4.15760         1.53310         5.13600
H           5.14340         1.35370         3.63550
H           5.26840         2.80640         4.63480
H           3.22980        -0.05870         3.66150
H           1.52120        -1.28280         2.44940
H          -0.64620        -1.20220         1.40120
H           0.17480         1.13950        -1.46300
H          -0.11540        -0.38180        -3.50310
H          -1.06090         1.10090        -3.45180
H          -1.85830        -0.40700        -3.08850
H           1.68770        -1.23040        -1.97590
H           1.85160        -1.89570        -0.33080
H           2.02890        -0.17040        -0.65180
H          -0.60310        -2.81600         0.02880
H          -1.91680        -2.01650        -0.77950
H          -1.14110        -4.19900        -1.55830
H           0.69610        -4.64100        -2.95790
H           1.34400        -3.89300        -1.50520
H           1.20560        -2.96570        -3.02630
H          -1.05550        -2.35090        -3.94090
H          -1.66990        -3.98170        -3.79720
H          -2.52780        -2.67320        -2.99490
H           0.03670         2.41910         0.78720
H           1.77040         3.63450         2.00560

