%NProcShared=1
%Mem=10GB

#p B3LYP/6-31G* opt freq

test

0  1
C           4.34260         2.23890         4.09150
O           3.62710         1.01160         4.02950
C           2.67250         0.90270         3.05720
C           2.33790         1.87640         2.12020
C           1.33420         1.62940         1.17420
C           0.65710         0.40060         1.12960
C          -0.44000         0.11840         0.12360
O          -1.31560         1.26010         0.08220
C          -1.93870         1.31320        -1.12580
O          -2.80370         2.12460        -1.41350
C          -1.42570         0.22200        -2.03430
C          -2.50680        -0.84020        -2.14710
C          -0.08180        -0.15370        -1.35710
C           0.97100         0.85840        -1.90570
C           0.48020        -1.56680        -1.71210
C          -0.11300        -2.83430        -1.05140
C           0.91740        -3.50410        -0.13230
C          -0.51790        -3.87520        -2.10540
C           0.98040        -0.55360         2.10290
C           1.98330        -0.30910         3.04640
H           5.06100         2.16580         4.91370
H           4.90790         2.41340         3.17000
H           3.67170         3.07650         4.30920
H           2.82720         2.84440         2.10030
H           1.07480         2.42590         0.47980
H          -1.05870        -0.69190         0.52670
H          -1.24980         0.65540        -3.02630
H          -2.71500        -1.32840        -1.19090
H          -3.45030        -0.39400        -2.48320
H          -2.23360        -1.59260        -2.88780
H           1.11540         0.71800        -2.98410
H           1.94920         0.71870        -1.43340
H           0.66750         1.90020        -1.75890
H           0.41590        -1.67050        -2.80460
H           1.55840        -1.55830        -1.49820
H          -0.99680        -2.59320        -0.45720
H           1.75950        -3.90710        -0.70650
H           0.46160        -4.33320         0.41950
H           1.32790        -2.80350         0.59410
H           0.34310        -4.18540        -2.70820
H          -0.93140        -4.76940        -1.62600
H          -1.27800        -3.49020        -2.78780
H           0.44200        -1.49660         2.15580
H           2.22080        -1.06820         3.78790

