
     RDKit          3D

 44 45  0  0  0  0  0  0  0  0999 V2000
    4.3426    2.2389    4.0915 C   0  0  0  0  0  0  0  0  0  0  0  0
    3.6271    1.0116    4.0295 O   0  0  0  0  0  0  0  0  0  0  0  0
    2.6725    0.9027    3.0572 C   0  0  0  0  0  0  0  0  0  0  0  0
    2.3379    1.8764    2.1202 C   0  0  0  0  0  0  0  0  0  0  0  0
    1.3342    1.6294    1.1742 C   0  0  0  0  0  0  0  0  0  0  0  0
    0.6571    0.4006    1.1296 C   0  0  0  0  0  0  0  0  0  0  0  0
   -0.4400    0.1184    0.1236 C   0  0  0  0  0  0  0  0  0  0  0  0
   -1.3156    1.2601    0.0822 O   0  0  0  0  0  0  0  0  0  0  0  0
   -1.9387    1.3132   -1.1258 C   0  0  0  0  0  0  0  0  0  0  0  0
   -2.8037    2.1246   -1.4135 O   0  0  0  0  0  0  0  0  0  0  0  0
   -1.4257    0.2220   -2.0343 C   0  0  0  0  0  0  0  0  0  0  0  0
   -2.5068   -0.8402   -2.1471 C   0  0  0  0  0  0  0  0  0  0  0  0
   -0.0818   -0.1537   -1.3571 C   0  0  0  0  0  0  0  0  0  0  0  0
    0.9710    0.8584   -1.9057 C   0  0  0  0  0  0  0  0  0  0  0  0
    0.4802   -1.5668   -1.7121 C   0  0  0  0  0  0  0  0  0  0  0  0
   -0.1130   -2.8343   -1.0514 C   0  0  0  0  0  0  0  0  0  0  0  0
    0.9174   -3.5041   -0.1323 C   0  0  0  0  0  0  0  0  0  0  0  0
   -0.5179   -3.8752   -2.1054 C   0  0  0  0  0  0  0  0  0  0  0  0
    0.9804   -0.5536    2.1029 C   0  0  0  0  0  0  0  0  0  0  0  0
    1.9833   -0.3091    3.0464 C   0  0  0  0  0  0  0  0  0  0  0  0
    5.0610    2.1658    4.9137 H   0  0  0  0  0  0  0  0  0  0  0  0
    4.9079    2.4134    3.1700 H   0  0  0  0  0  0  0  0  0  0  0  0
    3.6717    3.0765    4.3092 H   0  0  0  0  0  0  0  0  0  0  0  0
    2.8272    2.8444    2.1003 H   0  0  0  0  0  0  0  0  0  0  0  0
    1.0748    2.4259    0.4798 H   0  0  0  0  0  0  0  0  0  0  0  0
   -1.0587   -0.6919    0.5267 H   0  0  0  0  0  0  0  0  0  0  0  0
   -1.2498    0.6554   -3.0263 H   0  0  0  0  0  0  0  0  0  0  0  0
   -2.7150   -1.3284   -1.1909 H   0  0  0  0  0  0  0  0  0  0  0  0
   -3.4503   -0.3940   -2.4832 H   0  0  0  0  0  0  0  0  0  0  0  0
   -2.2336   -1.5926   -2.8878 H   0  0  0  0  0  0  0  0  0  0  0  0
    1.1154    0.7180   -2.9841 H   0  0  0  0  0  0  0  0  0  0  0  0
    1.9492    0.7187   -1.4334 H   0  0  0  0  0  0  0  0  0  0  0  0
    0.6675    1.9002   -1.7589 H   0  0  0  0  0  0  0  0  0  0  0  0
    0.4159   -1.6705   -2.8046 H   0  0  0  0  0  0  0  0  0  0  0  0
    1.5584   -1.5583   -1.4982 H   0  0  0  0  0  0  0  0  0  0  0  0
   -0.9968   -2.5932   -0.4572 H   0  0  0  0  0  0  0  0  0  0  0  0
    1.7595   -3.9071   -0.7065 H   0  0  0  0  0  0  0  0  0  0  0  0
    0.4616   -4.3332    0.4195 H   0  0  0  0  0  0  0  0  0  0  0  0
    1.3279   -2.8035    0.5941 H   0  0  0  0  0  0  0  0  0  0  0  0
    0.3431   -4.1854   -2.7082 H   0  0  0  0  0  0  0  0  0  0  0  0
   -0.9314   -4.7694   -1.6260 H   0  0  0  0  0  0  0  0  0  0  0  0
   -1.2780   -3.4902   -2.7878 H   0  0  0  0  0  0  0  0  0  0  0  0
    0.4420   -1.4966    2.1558 H   0  0  0  0  0  0  0  0  0  0  0  0
    2.2208   -1.0682    3.7879 H   0  0  0  0  0  0  0  0  0  0  0  0
  1  2  1  0
  2  3  1  0
  3  4  2  0
  4  5  1  0
  5  6  2  0
  6  7  1  0
  7  8  1  0
  8  9  1  0
  9 10  2  0
  9 11  1  0
 11 12  1  0
 11 13  1  0
 13 14  1  0
 13 15  1  0
 15 16  1  0
 16 17  1  0
 16 18  1  0
  6 19  1  0
 19 20  2  0
 20  3  1  0
 13  7  1  0
  1 21  1  0
  1 22  1  0
  1 23  1  0
  4 24  1  0
  5 25  1  0
  7 26  1  0
 11 27  1  0
 12 28  1  0
 12 29  1  0
 12 30  1  0
 14 31  1  0
 14 32  1  0
 14 33  1  0
 15 34  1  0
 15 35  1  0
 16 36  1  0
 17 37  1  0
 17 38  1  0
 17 39  1  0
 18 40  1  0
 18 41  1  0
 18 42  1  0
 19 43  1  0
 20 44  1  0
M  END
>  <energy_abs>  (62) 
51.90430267693163

>  <SMILES>  (62) 
COc1ccc(C2OC(=O)C(C)C2(C)CC(C)C)cc1

>  <cluster_no>  (62) 
62

>  <ccdc_id>  (62) 
33

>  <initial_conformation_id>  (62) 
252

>  <minimize_method>  (62) 
MMFF

$$$$
