
     RDKit          3D

 44 45  0  0  0  0  0  0  0  0999 V2000
    3.7302    2.9712    4.1611 C   0  0  0  0  0  0  0  0  0  0  0  0
    3.6827    1.6016    3.7810 O   0  0  0  0  0  0  0  0  0  0  0  0
    2.6556    1.2237    2.9620 C   0  0  0  0  0  0  0  0  0  0  0  0
    1.6653    2.0565    2.4469 C   0  0  0  0  0  0  0  0  0  0  0  0
    0.6662    1.5366    1.6129 C   0  0  0  0  0  0  0  0  0  0  0  0
    0.6391    0.1753    1.2729 C   0  0  0  0  0  0  0  0  0  0  0  0
   -0.4219   -0.4277    0.3622 C   0  0  0  0  0  0  0  0  0  0  0  0
   -1.6386    0.3398    0.4326 O   0  0  0  0  0  0  0  0  0  0  0  0
   -1.7680    1.1084   -0.6862 C   0  0  0  0  0  0  0  0  0  0  0  0
   -2.6832    1.8929   -0.8717 O   0  0  0  0  0  0  0  0  0  0  0  0
   -0.5953    0.8746   -1.6021 C   0  0  0  0  0  0  0  0  0  0  0  0
   -0.9607    1.0658   -3.0665 C   0  0  0  0  0  0  0  0  0  0  0  0
   -0.1074   -0.5306   -1.1568 C   0  0  0  0  0  0  0  0  0  0  0  0
    1.3780   -0.6873   -1.4994 C   0  0  0  0  0  0  0  0  0  0  0  0
   -0.9707   -1.6618   -1.8303 C   0  0  0  0  0  0  0  0  0  0  0  0
   -0.5911   -3.1641   -1.7463 C   0  0  0  0  0  0  0  0  0  0  0  0
   -0.3251   -3.7027   -0.3469 C   0  0  0  0  0  0  0  0  0  0  0  0
    0.5357   -3.5669   -2.7020 C   0  0  0  0  0  0  0  0  0  0  0  0
    1.6366   -0.6534    1.8096 C   0  0  0  0  0  0  0  0  0  0  0  0
    2.6334   -0.1326    2.6395 C   0  0  0  0  0  0  0  0  0  0  0  0
    4.5955    3.1062    4.8171 H   0  0  0  0  0  0  0  0  0  0  0  0
    3.8698    3.6181    3.2886 H   0  0  0  0  0  0  0  0  0  0  0  0
    2.8364    3.2557    4.7262 H   0  0  0  0  0  0  0  0  0  0  0  0
    1.6334    3.1166    2.6762 H   0  0  0  0  0  0  0  0  0  0  0  0
   -0.0969    2.2205    1.2474 H   0  0  0  0  0  0  0  0  0  0  0  0
   -0.6792   -1.4015    0.7823 H   0  0  0  0  0  0  0  0  0  0  0  0
    0.1556    1.6326   -1.3420 H   0  0  0  0  0  0  0  0  0  0  0  0
   -0.1559    0.7268   -3.7255 H   0  0  0  0  0  0  0  0  0  0  0  0
   -1.1336    2.1283   -3.2735 H   0  0  0  0  0  0  0  0  0  0  0  0
   -1.8865    0.5463   -3.3351 H   0  0  0  0  0  0  0  0  0  0  0  0
    1.5215   -0.7987   -2.5796 H   0  0  0  0  0  0  0  0  0  0  0  0
    1.8205   -1.5536   -1.0017 H   0  0  0  0  0  0  0  0  0  0  0  0
    1.9627    0.1886   -1.1964 H   0  0  0  0  0  0  0  0  0  0  0  0
   -1.0476   -1.4499   -2.9033 H   0  0  0  0  0  0  0  0  0  0  0  0
   -1.9986   -1.5754   -1.4504 H   0  0  0  0  0  0  0  0  0  0  0  0
   -1.4800   -3.6992   -2.1123 H   0  0  0  0  0  0  0  0  0  0  0  0
   -1.1754   -3.5100    0.3144 H   0  0  0  0  0  0  0  0  0  0  0  0
   -0.1807   -4.7887   -0.3757 H   0  0  0  0  0  0  0  0  0  0  0  0
    0.5756   -3.2684    0.0930 H   0  0  0  0  0  0  0  0  0  0  0  0
    0.3814   -3.1412   -3.6988 H   0  0  0  0  0  0  0  0  0  0  0  0
    0.5629   -4.6571   -2.8131 H   0  0  0  0  0  0  0  0  0  0  0  0
    1.5207   -3.2612   -2.3436 H   0  0  0  0  0  0  0  0  0  0  0  0
    1.6510   -1.7182    1.5891 H   0  0  0  0  0  0  0  0  0  0  0  0
    3.3982   -0.7926    3.0421 H   0  0  0  0  0  0  0  0  0  0  0  0
  1  2  1  0
  2  3  1  0
  3  4  2  0
  4  5  1  0
  5  6  2  0
  6  7  1  0
  7  8  1  0
  8  9  1  0
  9 10  2  0
  9 11  1  0
 11 12  1  0
 11 13  1  0
 13 14  1  0
 13 15  1  0
 15 16  1  0
 16 17  1  0
 16 18  1  0
  6 19  1  0
 19 20  2  0
 20  3  1  0
 13  7  1  0
  1 21  1  0
  1 22  1  0
  1 23  1  0
  4 24  1  0
  5 25  1  0
  7 26  1  0
 11 27  1  0
 12 28  1  0
 12 29  1  0
 12 30  1  0
 14 31  1  0
 14 32  1  0
 14 33  1  0
 15 34  1  0
 15 35  1  0
 16 36  1  0
 17 37  1  0
 17 38  1  0
 17 39  1  0
 18 40  1  0
 18 41  1  0
 18 42  1  0
 19 43  1  0
 20 44  1  0
M  END
>  <energy_abs>  (63) 
48.8181367574944

>  <SMILES>  (63) 
COc1ccc(C2OC(=O)C(C)C2(C)CC(C)C)cc1

>  <cluster_no>  (63) 
63

>  <ccdc_id>  (63) 
33

>  <initial_conformation_id>  (63) 
250

>  <minimize_method>  (63) 
MMFF

$$$$
