
     RDKit          3D

 44 45  0  0  0  0  0  0  0  0999 V2000
    4.4710    0.6044    4.1692 C   0  0  0  0  0  0  0  0  0  0  0  0
    3.0588    0.4430    4.1984 O   0  0  0  0  0  0  0  0  0  0  0  0
    2.3935    0.6005    3.0145 C   0  0  0  0  0  0  0  0  0  0  0  0
    1.0096    0.4449    3.0965 C   0  0  0  0  0  0  0  0  0  0  0  0
    0.2061    0.5759    1.9604 C   0  0  0  0  0  0  0  0  0  0  0  0
    0.7746    0.8596    0.7117 C   0  0  0  0  0  0  0  0  0  0  0  0
   -0.0661    1.0017   -0.5375 C   0  0  0  0  0  0  0  0  0  0  0  0
   -1.4135    1.3705   -0.2083 O   0  0  0  0  0  0  0  0  0  0  0  0
   -2.2392    0.9954   -1.2233 C   0  0  0  0  0  0  0  0  0  0  0  0
   -3.4261    1.2728   -1.2782 O   0  0  0  0  0  0  0  0  0  0  0  0
   -1.4722    0.2221   -2.2671 C   0  0  0  0  0  0  0  0  0  0  0  0
   -1.2576    1.1240   -3.4796 C   0  0  0  0  0  0  0  0  0  0  0  0
   -0.2061   -0.2204   -1.4784 C   0  0  0  0  0  0  0  0  0  0  0  0
    1.0226   -0.3826   -2.3798 C   0  0  0  0  0  0  0  0  0  0  0  0
   -0.5722   -1.5579   -0.7326 C   0  0  0  0  0  0  0  0  0  0  0  0
    0.5680   -2.3927   -0.0991 C   0  0  0  0  0  0  0  0  0  0  0  0
    1.1200   -3.4463   -1.0672 C   0  0  0  0  0  0  0  0  0  0  0  0
    0.0525   -3.1174    1.1514 C   0  0  0  0  0  0  0  0  0  0  0  0
    2.1667    1.0267    0.6409 C   0  0  0  0  0  0  0  0  0  0  0  0
    2.9699    0.8952    1.7806 C   0  0  0  0  0  0  0  0  0  0  0  0
    4.7464    1.6187    3.8620 H   0  0  0  0  0  0  0  0  0  0  0  0
    4.8461    0.4514    5.1858 H   0  0  0  0  0  0  0  0  0  0  0  0
    4.9408   -0.1459    3.5246 H   0  0  0  0  0  0  0  0  0  0  0  0
    0.5490    0.2208    4.0558 H   0  0  0  0  0  0  0  0  0  0  0  0
   -0.8700    0.4510    2.0652 H   0  0  0  0  0  0  0  0  0  0  0  0
    0.3409    1.8628   -1.0871 H   0  0  0  0  0  0  0  0  0  0  0  0
   -2.0704   -0.6439   -2.5714 H   0  0  0  0  0  0  0  0  0  0  0  0
   -0.7332    0.5919   -4.2793 H   0  0  0  0  0  0  0  0  0  0  0  0
   -2.2202    1.4570   -3.8842 H   0  0  0  0  0  0  0  0  0  0  0  0
   -0.6883    2.0252   -3.2290 H   0  0  0  0  0  0  0  0  0  0  0  0
    1.2897    0.5553   -2.8788 H   0  0  0  0  0  0  0  0  0  0  0  0
    0.8376   -1.1286   -3.1599 H   0  0  0  0  0  0  0  0  0  0  0  0
    1.9085   -0.6877   -1.8159 H   0  0  0  0  0  0  0  0  0  0  0  0
   -1.1008   -2.2163   -1.4361 H   0  0  0  0  0  0  0  0  0  0  0  0
   -1.3139   -1.3214    0.0420 H   0  0  0  0  0  0  0  0  0  0  0  0
    1.3938   -1.7485    0.2114 H   0  0  0  0  0  0  0  0  0  0  0  0
    1.5450   -2.9977   -1.9671 H   0  0  0  0  0  0  0  0  0  0  0  0
    1.9157   -4.0280   -0.5887 H   0  0  0  0  0  0  0  0  0  0  0  0
    0.3379   -4.1472   -1.3797 H   0  0  0  0  0  0  0  0  0  0  0  0
    0.8512   -3.7033    1.6188 H   0  0  0  0  0  0  0  0  0  0  0  0
   -0.3133   -2.4051    1.8973 H   0  0  0  0  0  0  0  0  0  0  0  0
   -0.7687   -3.7993    0.9048 H   0  0  0  0  0  0  0  0  0  0  0  0
    2.6446    1.2637   -0.3075 H   0  0  0  0  0  0  0  0  0  0  0  0
    4.0403    1.0313    1.6684 H   0  0  0  0  0  0  0  0  0  0  0  0
  1  2  1  0
  2  3  1  0
  3  4  2  0
  4  5  1  0
  5  6  2  0
  6  7  1  0
  7  8  1  0
  8  9  1  0
  9 10  2  0
  9 11  1  0
 11 12  1  0
 11 13  1  0
 13 14  1  0
 13 15  1  0
 15 16  1  0
 16 17  1  0
 16 18  1  0
  6 19  1  0
 19 20  2  0
 20  3  1  0
 13  7  1  0
  1 21  1  0
  1 22  1  0
  1 23  1  0
  4 24  1  0
  5 25  1  0
  7 26  1  0
 11 27  1  0
 12 28  1  0
 12 29  1  0
 12 30  1  0
 14 31  1  0
 14 32  1  0
 14 33  1  0
 15 34  1  0
 15 35  1  0
 16 36  1  0
 17 37  1  0
 17 38  1  0
 17 39  1  0
 18 40  1  0
 18 41  1  0
 18 42  1  0
 19 43  1  0
 20 44  1  0
M  END
>  <energy_abs>  (64) 
46.23097173390053

>  <SMILES>  (64) 
COc1ccc(C2OC(=O)C(C)C2(C)CC(C)C)cc1

>  <cluster_no>  (64) 
64

>  <ccdc_id>  (64) 
33

>  <initial_conformation_id>  (64) 
249

>  <minimize_method>  (64) 
MMFF

$$$$
