%NProcShared=1
%Mem=10GB

#p B3LYP/6-31G* opt freq

test

0  1
C           3.62920         3.07990         4.06410
O           3.66950         1.73140         3.61440
C           2.63090         1.31120         2.83110
C           1.54340         2.08000         2.42520
C           0.54430         1.52090         1.61670
C           0.61570         0.18680         1.18590
C          -0.45640        -0.45550         0.31640
O          -1.67360         0.30750         0.38140
C          -1.85090         1.01410        -0.76650
O          -2.73850         1.83680        -0.92650
C          -0.80080         0.65720        -1.78440
C           0.12840         1.84600        -2.00350
C          -0.18730        -0.64860        -1.20160
C           1.28340        -0.82580        -1.58720
C          -1.06170        -1.84000        -1.76480
C          -0.65050        -3.32840        -1.62890
C           0.42240        -3.76530        -2.63020
C          -0.29720        -3.78740        -0.22020
C           1.70670        -0.58020         1.62300
C           2.70360        -0.02130         2.42820
H           2.75260         3.25980         4.69520
H           4.52020         3.25530         4.67470
H           3.66050         3.77830         3.22120
H           1.43300         3.11770         2.72240
H          -0.29710         2.15340         1.33890
H          -0.69790        -1.40830         0.79260
H          -1.31450         0.45540        -2.73180
H           0.68270         2.11930        -1.10300
H           0.84860         1.63750        -2.80100
H          -0.44440         2.73050        -2.30500
H           1.72970        -1.69400        -1.09790
H           1.38870        -0.95070        -2.67060
H           1.89910         0.03390        -1.30450
H          -1.20920        -1.67060        -2.84110
H          -2.06790        -1.75410        -1.32910
H          -1.55010        -3.89450        -1.91320
H           1.42310        -3.42990        -2.35100
H           0.20030        -3.39350        -3.63570
H           0.45960        -4.85930        -2.68730
H          -1.11460        -3.57580         0.47600
H           0.61470        -3.31320         0.14880
H          -0.13090        -4.87040        -0.20090
H           1.79550        -1.62790         1.34630
H           3.54270        -0.63410         2.74950

