
     RDKit          3D

 44 45  0  0  0  0  0  0  0  0999 V2000
    3.6292    3.0799    4.0641 C   0  0  0  0  0  0  0  0  0  0  0  0
    3.6695    1.7314    3.6144 O   0  0  0  0  0  0  0  0  0  0  0  0
    2.6309    1.3112    2.8311 C   0  0  0  0  0  0  0  0  0  0  0  0
    1.5434    2.0800    2.4252 C   0  0  0  0  0  0  0  0  0  0  0  0
    0.5443    1.5209    1.6167 C   0  0  0  0  0  0  0  0  0  0  0  0
    0.6157    0.1868    1.1859 C   0  0  0  0  0  0  0  0  0  0  0  0
   -0.4564   -0.4555    0.3164 C   0  0  0  0  0  0  0  0  0  0  0  0
   -1.6736    0.3075    0.3814 O   0  0  0  0  0  0  0  0  0  0  0  0
   -1.8509    1.0141   -0.7665 C   0  0  0  0  0  0  0  0  0  0  0  0
   -2.7385    1.8368   -0.9265 O   0  0  0  0  0  0  0  0  0  0  0  0
   -0.8008    0.6572   -1.7844 C   0  0  0  0  0  0  0  0  0  0  0  0
    0.1284    1.8460   -2.0035 C   0  0  0  0  0  0  0  0  0  0  0  0
   -0.1873   -0.6486   -1.2016 C   0  0  0  0  0  0  0  0  0  0  0  0
    1.2834   -0.8258   -1.5872 C   0  0  0  0  0  0  0  0  0  0  0  0
   -1.0617   -1.8400   -1.7648 C   0  0  0  0  0  0  0  0  0  0  0  0
   -0.6505   -3.3284   -1.6289 C   0  0  0  0  0  0  0  0  0  0  0  0
    0.4224   -3.7653   -2.6302 C   0  0  0  0  0  0  0  0  0  0  0  0
   -0.2972   -3.7874   -0.2202 C   0  0  0  0  0  0  0  0  0  0  0  0
    1.7067   -0.5802    1.6230 C   0  0  0  0  0  0  0  0  0  0  0  0
    2.7036   -0.0213    2.4282 C   0  0  0  0  0  0  0  0  0  0  0  0
    2.7526    3.2598    4.6952 H   0  0  0  0  0  0  0  0  0  0  0  0
    4.5202    3.2553    4.6747 H   0  0  0  0  0  0  0  0  0  0  0  0
    3.6605    3.7783    3.2212 H   0  0  0  0  0  0  0  0  0  0  0  0
    1.4330    3.1177    2.7224 H   0  0  0  0  0  0  0  0  0  0  0  0
   -0.2971    2.1534    1.3389 H   0  0  0  0  0  0  0  0  0  0  0  0
   -0.6979   -1.4083    0.7926 H   0  0  0  0  0  0  0  0  0  0  0  0
   -1.3145    0.4554   -2.7318 H   0  0  0  0  0  0  0  0  0  0  0  0
    0.6827    2.1193   -1.1030 H   0  0  0  0  0  0  0  0  0  0  0  0
    0.8486    1.6375   -2.8010 H   0  0  0  0  0  0  0  0  0  0  0  0
   -0.4444    2.7305   -2.3050 H   0  0  0  0  0  0  0  0  0  0  0  0
    1.7297   -1.6940   -1.0979 H   0  0  0  0  0  0  0  0  0  0  0  0
    1.3887   -0.9507   -2.6706 H   0  0  0  0  0  0  0  0  0  0  0  0
    1.8991    0.0339   -1.3045 H   0  0  0  0  0  0  0  0  0  0  0  0
   -1.2092   -1.6706   -2.8411 H   0  0  0  0  0  0  0  0  0  0  0  0
   -2.0679   -1.7541   -1.3291 H   0  0  0  0  0  0  0  0  0  0  0  0
   -1.5501   -3.8945   -1.9132 H   0  0  0  0  0  0  0  0  0  0  0  0
    1.4231   -3.4299   -2.3510 H   0  0  0  0  0  0  0  0  0  0  0  0
    0.2003   -3.3935   -3.6357 H   0  0  0  0  0  0  0  0  0  0  0  0
    0.4596   -4.8593   -2.6873 H   0  0  0  0  0  0  0  0  0  0  0  0
   -1.1146   -3.5758    0.4760 H   0  0  0  0  0  0  0  0  0  0  0  0
    0.6147   -3.3132    0.1488 H   0  0  0  0  0  0  0  0  0  0  0  0
   -0.1309   -4.8704   -0.2009 H   0  0  0  0  0  0  0  0  0  0  0  0
    1.7955   -1.6279    1.3463 H   0  0  0  0  0  0  0  0  0  0  0  0
    3.5427   -0.6341    2.7495 H   0  0  0  0  0  0  0  0  0  0  0  0
  1  2  1  0
  2  3  1  0
  3  4  2  0
  4  5  1  0
  5  6  2  0
  6  7  1  0
  7  8  1  0
  8  9  1  0
  9 10  2  0
  9 11  1  0
 11 12  1  0
 11 13  1  0
 13 14  1  0
 13 15  1  0
 15 16  1  0
 16 17  1  0
 16 18  1  0
  6 19  1  0
 19 20  2  0
 20  3  1  0
 13  7  1  0
  1 21  1  0
  1 22  1  0
  1 23  1  0
  4 24  1  0
  5 25  1  0
  7 26  1  0
 11 27  1  0
 12 28  1  0
 12 29  1  0
 12 30  1  0
 14 31  1  0
 14 32  1  0
 14 33  1  0
 15 34  1  0
 15 35  1  0
 16 36  1  0
 17 37  1  0
 17 38  1  0
 17 39  1  0
 18 40  1  0
 18 41  1  0
 18 42  1  0
 19 43  1  0
 20 44  1  0
M  END
>  <energy_abs>  (65) 
50.37173450439138

>  <SMILES>  (65) 
COc1ccc(C2OC(=O)C(C)C2(C)CC(C)C)cc1

>  <cluster_no>  (65) 
65

>  <ccdc_id>  (65) 
33

>  <initial_conformation_id>  (65) 
248

>  <minimize_method>  (65) 
MMFF

$$$$
