
     RDKit          3D

 44 45  0  0  0  0  0  0  0  0999 V2000
    4.5223    1.2349    3.8740 C   0  0  0  0  0  0  0  0  0  0  0  0
    3.1052    1.3657    3.8600 O   0  0  0  0  0  0  0  0  0  0  0  0
    2.4846    1.1386    2.6631 C   0  0  0  0  0  0  0  0  0  0  0  0
    1.1633    1.5745    2.5916 C   0  0  0  0  0  0  0  0  0  0  0  0
    0.4147    1.4057    1.4221 C   0  0  0  0  0  0  0  0  0  0  0  0
    0.9619    0.7635    0.3037 C   0  0  0  0  0  0  0  0  0  0  0  0
    0.1908    0.5623   -0.9894 C   0  0  0  0  0  0  0  0  0  0  0  0
   -0.6491    1.7055   -1.2244 O   0  0  0  0  0  0  0  0  0  0  0  0
   -1.9585    1.3864   -1.0416 C   0  0  0  0  0  0  0  0  0  0  0  0
   -2.8651    2.2051   -1.0703 O   0  0  0  0  0  0  0  0  0  0  0  0
   -2.1300   -0.0909   -0.7958 C   0  0  0  0  0  0  0  0  0  0  0  0
   -2.6554   -0.3365    0.6134 C   0  0  0  0  0  0  0  0  0  0  0  0
   -0.7406   -0.6671   -1.1634 C   0  0  0  0  0  0  0  0  0  0  0  0
   -0.7886   -1.0031   -2.6796 C   0  0  0  0  0  0  0  0  0  0  0  0
   -0.3688   -1.9367   -0.3445 C   0  0  0  0  0  0  0  0  0  0  0  0
    0.9114   -2.7015   -0.7594 C   0  0  0  0  0  0  0  0  0  0  0  0
    0.6076   -3.8671   -1.7097 C   0  0  0  0  0  0  0  0  0  0  0  0
    1.6080   -3.2760    0.4815 C   0  0  0  0  0  0  0  0  0  0  0  0
    2.2968    0.3378    0.3869 C   0  0  0  0  0  0  0  0  0  0  0  0
    3.0501    0.5184    1.5543 C   0  0  0  0  0  0  0  0  0  0  0  0
    4.9873    1.8767    3.1162 H   0  0  0  0  0  0  0  0  0  0  0  0
    4.8783    1.5653    4.8549 H   0  0  0  0  0  0  0  0  0  0  0  0
    4.8233    0.1891    3.7450 H   0  0  0  0  0  0  0  0  0  0  0  0
    0.7160    2.0728    3.4472 H   0  0  0  0  0  0  0  0  0  0  0  0
   -0.5938    1.8102    1.4018 H   0  0  0  0  0  0  0  0  0  0  0  0
    0.9306    0.5777   -1.8000 H   0  0  0  0  0  0  0  0  0  0  0  0
   -2.8866   -0.4533   -1.5035 H   0  0  0  0  0  0  0  0  0  0  0  0
   -2.9036   -1.3929    0.7568 H   0  0  0  0  0  0  0  0  0  0  0  0
   -3.5686    0.2404    0.7908 H   0  0  0  0  0  0  0  0  0  0  0  0
   -1.9427   -0.0506    1.3868 H   0  0  0  0  0  0  0  0  0  0  0  0
   -1.1238   -0.1474   -3.2760 H   0  0  0  0  0  0  0  0  0  0  0  0
    0.1977   -1.2828   -3.0626 H   0  0  0  0  0  0  0  0  0  0  0  0
   -1.4842   -1.8266   -2.8769 H   0  0  0  0  0  0  0  0  0  0  0  0
   -1.2144   -2.6377   -0.3851 H   0  0  0  0  0  0  0  0  0  0  0  0
   -0.2822   -1.6525    0.7115 H   0  0  0  0  0  0  0  0  0  0  0  0
    1.6122   -2.0227   -1.2555 H   0  0  0  0  0  0  0  0  0  0  0  0
   -0.0093   -4.6275   -1.2200 H   0  0  0  0  0  0  0  0  0  0  0  0
    0.0811   -3.5459   -2.6083 H   0  0  0  0  0  0  0  0  0  0  0  0
    1.5358   -4.3499   -2.0294 H   0  0  0  0  0  0  0  0  0  0  0  0
    0.9552   -3.9789    1.0118 H   0  0  0  0  0  0  0  0  0  0  0  0
    1.8863   -2.4835    1.1820 H   0  0  0  0  0  0  0  0  0  0  0  0
    2.5233   -3.8084    0.2032 H   0  0  0  0  0  0  0  0  0  0  0  0
    2.7759   -0.1382   -0.4657 H   0  0  0  0  0  0  0  0  0  0  0  0
    4.0724    0.1563    1.5641 H   0  0  0  0  0  0  0  0  0  0  0  0
  1  2  1  0
  2  3  1  0
  3  4  2  0
  4  5  1  0
  5  6  2  0
  6  7  1  0
  7  8  1  0
  8  9  1  0
  9 10  2  0
  9 11  1  0
 11 12  1  0
 11 13  1  0
 13 14  1  0
 13 15  1  0
 15 16  1  0
 16 17  1  0
 16 18  1  0
  6 19  1  0
 19 20  2  0
 20  3  1  0
 13  7  1  0
  1 21  1  0
  1 22  1  0
  1 23  1  0
  4 24  1  0
  5 25  1  0
  7 26  1  0
 11 27  1  0
 12 28  1  0
 12 29  1  0
 12 30  1  0
 14 31  1  0
 14 32  1  0
 14 33  1  0
 15 34  1  0
 15 35  1  0
 16 36  1  0
 17 37  1  0
 17 38  1  0
 17 39  1  0
 18 40  1  0
 18 41  1  0
 18 42  1  0
 19 43  1  0
 20 44  1  0
M  END
>  <energy_abs>  (67) 
48.166600139857614

>  <SMILES>  (67) 
COc1ccc(C2OC(=O)C(C)C2(C)CC(C)C)cc1

>  <cluster_no>  (67) 
67

>  <ccdc_id>  (67) 
33

>  <initial_conformation_id>  (67) 
244

>  <minimize_method>  (67) 
MMFF

$$$$
