%NProcShared=1
%Mem=10GB

#p B3LYP/6-31G* opt freq

test

0  1
C           4.50770         2.96450         3.44910
O           4.24640         1.59660         3.16120
C           3.09140         1.31880         2.48480
C           2.15750         2.24830         2.03570
C           1.01230         1.82230         1.35050
C           0.77550         0.46040         1.09670
C          -0.46080        -0.01130         0.34620
O          -1.46840         1.01630         0.38550
C          -2.20760         1.00060        -0.75380
O          -3.14990         1.74800        -0.96260
C          -1.72340        -0.07720        -1.69180
C          -2.76300        -1.18380        -1.68850
C          -0.29910        -0.35210        -1.15360
C           0.62840         0.71220        -1.83800
C           0.35880        -1.72800        -1.48300
C          -0.26220        -3.11140        -1.17010
C           0.69150        -4.20130        -1.69430
C          -0.56270        -3.40580         0.29520
C           1.72230        -0.46190         1.56000
C           2.86600        -0.03590         2.24310
H           5.45440         3.01610         3.99540
H           4.62250         3.54650         2.52870
H           3.72910         3.38890         4.09160
H           2.28340         3.31320         2.20020
H           0.30260         2.57750         1.01580
H          -0.88840        -0.83780         0.91480
H          -1.67570         0.35080        -2.70060
H          -2.57050        -1.90190        -2.48920
H          -2.81340        -1.70280        -0.72820
H          -3.76380        -0.77600        -1.87560
H           0.63240         0.58160        -2.92710
H           0.30180         1.73890        -1.63820
H           1.66710         0.61920        -1.50200
H           0.52860        -1.72880        -2.57060
H           1.36660        -1.72300        -1.04530
H          -1.18630        -3.23760        -1.73620
H           0.88760        -4.06860        -2.76370
H           1.65080        -4.17720        -1.16590
H           0.25650        -5.19790        -1.56140
H          -1.38850        -2.80180         0.67250
H           0.31420        -3.24990         0.92730
H          -0.87060        -4.45050         0.42160
H           1.58900        -1.52660         1.40090
H           3.58810        -0.77000         2.59290

