
     RDKit          3D

 44 45  0  0  0  0  0  0  0  0999 V2000
    4.5077    2.9645    3.4491 C   0  0  0  0  0  0  0  0  0  0  0  0
    4.2464    1.5966    3.1612 O   0  0  0  0  0  0  0  0  0  0  0  0
    3.0914    1.3188    2.4848 C   0  0  0  0  0  0  0  0  0  0  0  0
    2.1575    2.2483    2.0357 C   0  0  0  0  0  0  0  0  0  0  0  0
    1.0123    1.8223    1.3505 C   0  0  0  0  0  0  0  0  0  0  0  0
    0.7755    0.4604    1.0967 C   0  0  0  0  0  0  0  0  0  0  0  0
   -0.4608   -0.0113    0.3462 C   0  0  0  0  0  0  0  0  0  0  0  0
   -1.4684    1.0163    0.3855 O   0  0  0  0  0  0  0  0  0  0  0  0
   -2.2076    1.0006   -0.7538 C   0  0  0  0  0  0  0  0  0  0  0  0
   -3.1499    1.7480   -0.9626 O   0  0  0  0  0  0  0  0  0  0  0  0
   -1.7234   -0.0772   -1.6918 C   0  0  0  0  0  0  0  0  0  0  0  0
   -2.7630   -1.1838   -1.6885 C   0  0  0  0  0  0  0  0  0  0  0  0
   -0.2991   -0.3521   -1.1536 C   0  0  0  0  0  0  0  0  0  0  0  0
    0.6284    0.7122   -1.8380 C   0  0  0  0  0  0  0  0  0  0  0  0
    0.3588   -1.7280   -1.4830 C   0  0  0  0  0  0  0  0  0  0  0  0
   -0.2622   -3.1114   -1.1701 C   0  0  0  0  0  0  0  0  0  0  0  0
    0.6915   -4.2013   -1.6943 C   0  0  0  0  0  0  0  0  0  0  0  0
   -0.5627   -3.4058    0.2952 C   0  0  0  0  0  0  0  0  0  0  0  0
    1.7223   -0.4619    1.5600 C   0  0  0  0  0  0  0  0  0  0  0  0
    2.8660   -0.0359    2.2431 C   0  0  0  0  0  0  0  0  0  0  0  0
    5.4544    3.0161    3.9954 H   0  0  0  0  0  0  0  0  0  0  0  0
    4.6225    3.5465    2.5287 H   0  0  0  0  0  0  0  0  0  0  0  0
    3.7291    3.3889    4.0916 H   0  0  0  0  0  0  0  0  0  0  0  0
    2.2834    3.3132    2.2002 H   0  0  0  0  0  0  0  0  0  0  0  0
    0.3026    2.5775    1.0158 H   0  0  0  0  0  0  0  0  0  0  0  0
   -0.8884   -0.8378    0.9148 H   0  0  0  0  0  0  0  0  0  0  0  0
   -1.6757    0.3508   -2.7006 H   0  0  0  0  0  0  0  0  0  0  0  0
   -2.5705   -1.9019   -2.4892 H   0  0  0  0  0  0  0  0  0  0  0  0
   -2.8134   -1.7028   -0.7282 H   0  0  0  0  0  0  0  0  0  0  0  0
   -3.7638   -0.7760   -1.8756 H   0  0  0  0  0  0  0  0  0  0  0  0
    0.6324    0.5816   -2.9271 H   0  0  0  0  0  0  0  0  0  0  0  0
    0.3018    1.7389   -1.6382 H   0  0  0  0  0  0  0  0  0  0  0  0
    1.6671    0.6192   -1.5020 H   0  0  0  0  0  0  0  0  0  0  0  0
    0.5286   -1.7288   -2.5706 H   0  0  0  0  0  0  0  0  0  0  0  0
    1.3666   -1.7230   -1.0453 H   0  0  0  0  0  0  0  0  0  0  0  0
   -1.1863   -3.2376   -1.7362 H   0  0  0  0  0  0  0  0  0  0  0  0
    0.8876   -4.0686   -2.7637 H   0  0  0  0  0  0  0  0  0  0  0  0
    1.6508   -4.1772   -1.1659 H   0  0  0  0  0  0  0  0  0  0  0  0
    0.2565   -5.1979   -1.5614 H   0  0  0  0  0  0  0  0  0  0  0  0
   -1.3885   -2.8018    0.6725 H   0  0  0  0  0  0  0  0  0  0  0  0
    0.3142   -3.2499    0.9273 H   0  0  0  0  0  0  0  0  0  0  0  0
   -0.8706   -4.4505    0.4216 H   0  0  0  0  0  0  0  0  0  0  0  0
    1.5890   -1.5266    1.4009 H   0  0  0  0  0  0  0  0  0  0  0  0
    3.5881   -0.7700    2.5929 H   0  0  0  0  0  0  0  0  0  0  0  0
  1  2  1  0
  2  3  1  0
  3  4  2  0
  4  5  1  0
  5  6  2  0
  6  7  1  0
  7  8  1  0
  8  9  1  0
  9 10  2  0
  9 11  1  0
 11 12  1  0
 11 13  1  0
 13 14  1  0
 13 15  1  0
 15 16  1  0
 16 17  1  0
 16 18  1  0
  6 19  1  0
 19 20  2  0
 20  3  1  0
 13  7  1  0
  1 21  1  0
  1 22  1  0
  1 23  1  0
  4 24  1  0
  5 25  1  0
  7 26  1  0
 11 27  1  0
 12 28  1  0
 12 29  1  0
 12 30  1  0
 14 31  1  0
 14 32  1  0
 14 33  1  0
 15 34  1  0
 15 35  1  0
 16 36  1  0
 17 37  1  0
 17 38  1  0
 17 39  1  0
 18 40  1  0
 18 41  1  0
 18 42  1  0
 19 43  1  0
 20 44  1  0
M  END
>  <energy_abs>  (68) 
51.602467669509096

>  <SMILES>  (68) 
COc1ccc(C2OC(=O)C(C)C2(C)CC(C)C)cc1

>  <cluster_no>  (68) 
68

>  <ccdc_id>  (68) 
33

>  <initial_conformation_id>  (68) 
243

>  <minimize_method>  (68) 
MMFF

$$$$
