
     RDKit          3D

 44 45  0  0  0  0  0  0  0  0999 V2000
    5.2171    1.7858    3.2241 C   0  0  0  0  0  0  0  0  0  0  0  0
    3.8860    1.4391    3.5835 O   0  0  0  0  0  0  0  0  0  0  0  0
    2.9756    1.3443    2.5679 C   0  0  0  0  0  0  0  0  0  0  0  0
    1.6800    1.0213    2.9725 C   0  0  0  0  0  0  0  0  0  0  0  0
    0.6500    0.8909    2.0370 C   0  0  0  0  0  0  0  0  0  0  0  0
    0.8979    1.0779    0.6702 C   0  0  0  0  0  0  0  0  0  0  0  0
   -0.1944    0.9286   -0.3694 C   0  0  0  0  0  0  0  0  0  0  0  0
   -1.4893    1.1407    0.2079 O   0  0  0  0  0  0  0  0  0  0  0  0
   -2.4218    0.4852   -0.5357 C   0  0  0  0  0  0  0  0  0  0  0  0
   -3.6256    0.5777   -0.3577 O   0  0  0  0  0  0  0  0  0  0  0  0
   -1.7592   -0.3405   -1.6113 C   0  0  0  0  0  0  0  0  0  0  0  0
   -1.9685    0.3490   -2.9559 C   0  0  0  0  0  0  0  0  0  0  0  0
   -0.3009   -0.4336   -1.1002 C   0  0  0  0  0  0  0  0  0  0  0  0
    0.7457   -0.5403   -2.2173 C   0  0  0  0  0  0  0  0  0  0  0  0
   -0.1688   -1.6410   -0.1074 C   0  0  0  0  0  0  0  0  0  0  0  0
   -0.3085   -3.0517   -0.7348 C   0  0  0  0  0  0  0  0  0  0  0  0
    1.0577   -3.7072   -0.9611 C   0  0  0  0  0  0  0  0  0  0  0  0
   -1.1484   -3.9541    0.1749 C   0  0  0  0  0  0  0  0  0  0  0  0
    2.2027    1.4083    0.2730 C   0  0  0  0  0  0  0  0  0  0  0  0
    3.2331    1.5390    1.2124 C   0  0  0  0  0  0  0  0  0  0  0  0
    5.6612    1.0248    2.5739 H   0  0  0  0  0  0  0  0  0  0  0  0
    5.2554    2.7760    2.7581 H   0  0  0  0  0  0  0  0  0  0  0  0
    5.8114    1.8270    4.1420 H   0  0  0  0  0  0  0  0  0  0  0  0
    1.4675    0.8716    4.0285 H   0  0  0  0  0  0  0  0  0  0  0  0
   -0.3484    0.6409    2.3910 H   0  0  0  0  0  0  0  0  0  0  0  0
   -0.0604    1.7476   -1.0905 H   0  0  0  0  0  0  0  0  0  0  0  0
   -2.2433   -1.3216   -1.6303 H   0  0  0  0  0  0  0  0  0  0  0  0
   -1.5288   -0.2340   -3.7709 H   0  0  0  0  0  0  0  0  0  0  0  0
   -3.0381    0.4573   -3.1690 H   0  0  0  0  0  0  0  0  0  0  0  0
   -1.5356    1.3547   -2.9746 H   0  0  0  0  0  0  0  0  0  0  0  0
    1.7491   -0.6952   -1.8071 H   0  0  0  0  0  0  0  0  0  0  0  0
    0.7864    0.3693   -2.8263 H   0  0  0  0  0  0  0  0  0  0  0  0
    0.5275   -1.3735   -2.8930 H   0  0  0  0  0  0  0  0  0  0  0  0
    0.8008   -1.5888    0.4035 H   0  0  0  0  0  0  0  0  0  0  0  0
   -0.9233   -1.5217    0.6817 H   0  0  0  0  0  0  0  0  0  0  0  0
   -0.8191   -2.9947   -1.7020 H   0  0  0  0  0  0  0  0  0  0  0  0
    1.6843   -3.1125   -1.6308 H   0  0  0  0  0  0  0  0  0  0  0  0
    0.9399   -4.6973   -1.4146 H   0  0  0  0  0  0  0  0  0  0  0  0
    1.5991   -3.8342   -0.0172 H   0  0  0  0  0  0  0  0  0  0  0  0
   -0.6895   -4.0603    1.1639 H   0  0  0  0  0  0  0  0  0  0  0  0
   -1.2555   -4.9541   -0.2589 H   0  0  0  0  0  0  0  0  0  0  0  0
   -2.1541   -3.5411    0.3081 H   0  0  0  0  0  0  0  0  0  0  0  0
    2.4329    1.5728   -0.7777 H   0  0  0  0  0  0  0  0  0  0  0  0
    4.2232    1.7953    0.8505 H   0  0  0  0  0  0  0  0  0  0  0  0
  1  2  1  0
  2  3  1  0
  3  4  2  0
  4  5  1  0
  5  6  2  0
  6  7  1  0
  7  8  1  0
  8  9  1  0
  9 10  2  0
  9 11  1  0
 11 12  1  0
 11 13  1  0
 13 14  1  0
 13 15  1  0
 15 16  1  0
 16 17  1  0
 16 18  1  0
  6 19  1  0
 19 20  2  0
 20  3  1  0
 13  7  1  0
  1 21  1  0
  1 22  1  0
  1 23  1  0
  4 24  1  0
  5 25  1  0
  7 26  1  0
 11 27  1  0
 12 28  1  0
 12 29  1  0
 12 30  1  0
 14 31  1  0
 14 32  1  0
 14 33  1  0
 15 34  1  0
 15 35  1  0
 16 36  1  0
 17 37  1  0
 17 38  1  0
 17 39  1  0
 18 40  1  0
 18 41  1  0
 18 42  1  0
 19 43  1  0
 20 44  1  0
M  END
>  <energy_abs>  (69) 
44.29485182078772

>  <SMILES>  (69) 
COc1ccc(C2OC(=O)C(C)C2(C)CC(C)C)cc1

>  <cluster_no>  (69) 
69

>  <ccdc_id>  (69) 
33

>  <initial_conformation_id>  (69) 
242

>  <minimize_method>  (69) 
MMFF

$$$$
