
     RDKit          3D

 44 45  0  0  0  0  0  0  0  0999 V2000
    4.9970    1.3263    3.6611 C   0  0  0  0  0  0  0  0  0  0  0  0
    3.6425    1.0789    4.0167 O   0  0  0  0  0  0  0  0  0  0  0  0
    2.7321    1.0524    2.9968 C   0  0  0  0  0  0  0  0  0  0  0  0
    3.0094    1.2272    1.6427 C   0  0  0  0  0  0  0  0  0  0  0  0
    1.9763    1.1742    0.6989 C   0  0  0  0  0  0  0  0  0  0  0  0
    0.6484    0.9423    1.0899 C   0  0  0  0  0  0  0  0  0  0  0  0
   -0.4824    0.8720    0.0832 C   0  0  0  0  0  0  0  0  0  0  0  0
   -0.1352    1.5579   -1.1256 O   0  0  0  0  0  0  0  0  0  0  0  0
   -0.8935    1.0680   -2.1420 C   0  0  0  0  0  0  0  0  0  0  0  0
   -0.9208    1.5451   -3.2649 O   0  0  0  0  0  0  0  0  0  0  0  0
   -1.6960   -0.1232   -1.6787 C   0  0  0  0  0  0  0  0  0  0  0  0
   -3.1581    0.2899   -1.5438 C   0  0  0  0  0  0  0  0  0  0  0  0
   -0.9684   -0.5322   -0.3744 C   0  0  0  0  0  0  0  0  0  0  0  0
   -1.8824   -1.1585    0.6893 C   0  0  0  0  0  0  0  0  0  0  0  0
    0.2330   -1.4894   -0.6999 C   0  0  0  0  0  0  0  0  0  0  0  0
   -0.0461   -3.0059   -0.8623 C   0  0  0  0  0  0  0  0  0  0  0  0
    1.2868   -3.7445   -1.0493 C   0  0  0  0  0  0  0  0  0  0  0  0
   -0.9774   -3.3637   -2.0171 C   0  0  0  0  0  0  0  0  0  0  0  0
    0.3812    0.7751    2.4559 C   0  0  0  0  0  0  0  0  0  0  0  0
    1.4141    0.8275    3.3959 C   0  0  0  0  0  0  0  0  0  0  0  0
    5.1098    2.3109    3.1954 H   0  0  0  0  0  0  0  0  0  0  0  0
    5.3856    0.5342    3.0125 H   0  0  0  0  0  0  0  0  0  0  0  0
    5.5897    1.3236    4.5810 H   0  0  0  0  0  0  0  0  0  0  0  0
    4.0166    1.4083    1.2827 H   0  0  0  0  0  0  0  0  0  0  0  0
    2.2237    1.3161   -0.3520 H   0  0  0  0  0  0  0  0  0  0  0  0
   -1.3156    1.4471    0.5127 H   0  0  0  0  0  0  0  0  0  0  0  0
   -1.6093   -0.8892   -2.4508 H   0  0  0  0  0  0  0  0  0  0  0  0
   -3.5426    0.6585   -2.5016 H   0  0  0  0  0  0  0  0  0  0  0  0
   -3.2930    1.0957   -0.8147 H   0  0  0  0  0  0  0  0  0  0  0  0
   -3.7814   -0.5582   -1.2444 H   0  0  0  0  0  0  0  0  0  0  0  0
   -1.3035   -1.5177    1.5468 H   0  0  0  0  0  0  0  0  0  0  0  0
   -2.6146   -0.4398    1.0732 H   0  0  0  0  0  0  0  0  0  0  0  0
   -2.4437   -2.0085    0.2891 H   0  0  0  0  0  0  0  0  0  0  0  0
    0.9552   -1.4206    0.1222 H   0  0  0  0  0  0  0  0  0  0  0  0
    0.7637   -1.1260   -1.5902 H   0  0  0  0  0  0  0  0  0  0  0  0
   -0.4910   -3.3868    0.0648 H   0  0  0  0  0  0  0  0  0  0  0  0
    1.1281   -4.8264   -1.1112 H   0  0  0  0  0  0  0  0  0  0  0  0
    1.9591   -3.5573   -0.2052 H   0  0  0  0  0  0  0  0  0  0  0  0
    1.7936   -3.4227   -1.9656 H   0  0  0  0  0  0  0  0  0  0  0  0
   -1.0565   -4.4510   -2.1284 H   0  0  0  0  0  0  0  0  0  0  0  0
   -0.6091   -2.9593   -2.9657 H   0  0  0  0  0  0  0  0  0  0  0  0
   -1.9908   -2.9915   -1.8451 H   0  0  0  0  0  0  0  0  0  0  0  0
   -0.6344    0.6073    2.8070 H   0  0  0  0  0  0  0  0  0  0  0  0
    1.1888    0.6951    4.4515 H   0  0  0  0  0  0  0  0  0  0  0  0
  1  2  1  0
  2  3  1  0
  3  4  2  0
  4  5  1  0
  5  6  2  0
  6  7  1  0
  7  8  1  0
  8  9  1  0
  9 10  2  0
  9 11  1  0
 11 12  1  0
 11 13  1  0
 13 14  1  0
 13 15  1  0
 15 16  1  0
 16 17  1  0
 16 18  1  0
  6 19  1  0
 19 20  2  0
 20  3  1  0
 13  7  1  0
  1 21  1  0
  1 22  1  0
  1 23  1  0
  4 24  1  0
  5 25  1  0
  7 26  1  0
 11 27  1  0
 12 28  1  0
 12 29  1  0
 12 30  1  0
 14 31  1  0
 14 32  1  0
 14 33  1  0
 15 34  1  0
 15 35  1  0
 16 36  1  0
 17 37  1  0
 17 38  1  0
 17 39  1  0
 18 40  1  0
 18 41  1  0
 18 42  1  0
 19 43  1  0
 20 44  1  0
M  END
>  <energy_abs>  (7) 
44.240455568378195

>  <SMILES>  (7) 
COc1ccc(C2OC(=O)C(C)C2(C)CC(C)C)cc1

>  <cluster_no>  (7) 
7

>  <ccdc_id>  (7) 
33

>  <initial_conformation_id>  (7) 
278

>  <minimize_method>  (7) 
MMFF

$$$$
