
     RDKit          3D

 44 45  0  0  0  0  0  0  0  0999 V2000
    5.0466    2.6853    2.9594 C   0  0  0  0  0  0  0  0  0  0  0  0
    4.1885    1.6113    3.3236 O   0  0  0  0  0  0  0  0  0  0  0  0
    3.0765    1.4212    2.5510 C   0  0  0  0  0  0  0  0  0  0  0  0
    2.2533    0.3716    2.9600 C   0  0  0  0  0  0  0  0  0  0  0  0
    1.0829    0.0661    2.2599 C   0  0  0  0  0  0  0  0  0  0  0  0
    0.7135    0.8044    1.1270 C   0  0  0  0  0  0  0  0  0  0  0  0
   -0.5534    0.4508    0.3736 C   0  0  0  0  0  0  0  0  0  0  0  0
   -1.0757    1.5975   -0.3139 O   0  0  0  0  0  0  0  0  0  0  0  0
   -1.7915    1.1845   -1.3965 C   0  0  0  0  0  0  0  0  0  0  0  0
   -2.4237    1.9335   -2.1235 O   0  0  0  0  0  0  0  0  0  0  0  0
   -1.7129   -0.3163   -1.5422 C   0  0  0  0  0  0  0  0  0  0  0  0
   -3.0364   -0.9054   -1.0634 C   0  0  0  0  0  0  0  0  0  0  0  0
   -0.4500   -0.6485   -0.7128 C   0  0  0  0  0  0  0  0  0  0  0  0
    0.7897   -0.4363   -1.6151 C   0  0  0  0  0  0  0  0  0  0  0  0
   -0.4306   -2.0670   -0.0782 C   0  0  0  0  0  0  0  0  0  0  0  0
   -0.4540   -3.2627   -1.0611 C   0  0  0  0  0  0  0  0  0  0  0  0
   -1.2762   -4.4142   -0.4684 C   0  0  0  0  0  0  0  0  0  0  0  0
    0.9539   -3.7866   -1.3662 C   0  0  0  0  0  0  0  0  0  0  0  0
    1.5442    1.8624    0.7278 C   0  0  0  0  0  0  0  0  0  0  0  0
    2.7159    2.1677    1.4314 C   0  0  0  0  0  0  0  0  0  0  0  0
    5.8754    2.7077    3.6736 H   0  0  0  0  0  0  0  0  0  0  0  0
    5.4709    2.5305    1.9619 H   0  0  0  0  0  0  0  0  0  0  0  0
    4.5258    3.6464    3.0237 H   0  0  0  0  0  0  0  0  0  0  0  0
    2.5246   -0.2126    3.8362 H   0  0  0  0  0  0  0  0  0  0  0  0
    0.4622   -0.7534    2.6153 H   0  0  0  0  0  0  0  0  0  0  0  0
   -1.3122    0.1882    1.1240 H   0  0  0  0  0  0  0  0  0  0  0  0
   -1.5628   -0.5606   -2.5999 H   0  0  0  0  0  0  0  0  0  0  0  0
   -3.0656   -1.9882   -1.2055 H   0  0  0  0  0  0  0  0  0  0  0  0
   -3.2265   -0.6897   -0.0068 H   0  0  0  0  0  0  0  0  0  0  0  0
   -3.8727   -0.4815   -1.6312 H   0  0  0  0  0  0  0  0  0  0  0  0
    0.7358   -1.0584   -2.5147 H   0  0  0  0  0  0  0  0  0  0  0  0
    0.8764    0.5998   -1.9607 H   0  0  0  0  0  0  0  0  0  0  0  0
    1.7159   -0.6882   -1.0876 H   0  0  0  0  0  0  0  0  0  0  0  0
   -1.2867   -2.1452    0.6047 H   0  0  0  0  0  0  0  0  0  0  0  0
    0.4535   -2.1635    0.5642 H   0  0  0  0  0  0  0  0  0  0  0  0
   -0.9269   -2.9672   -2.0042 H   0  0  0  0  0  0  0  0  0  0  0  0
   -2.3090   -4.1037   -0.2802 H   0  0  0  0  0  0  0  0  0  0  0  0
   -1.3081   -5.2651   -1.1574 H   0  0  0  0  0  0  0  0  0  0  0  0
   -0.8491   -4.7605    0.4792 H   0  0  0  0  0  0  0  0  0  0  0  0
    0.9069   -4.6344   -2.0585 H   0  0  0  0  0  0  0  0  0  0  0  0
    1.4558   -4.1286   -0.4543 H   0  0  0  0  0  0  0  0  0  0  0  0
    1.5859   -3.0262   -1.8290 H   0  0  0  0  0  0  0  0  0  0  0  0
    1.2857    2.4675   -0.1398 H   0  0  0  0  0  0  0  0  0  0  0  0
    3.3194    2.9965    1.0767 H   0  0  0  0  0  0  0  0  0  0  0  0
  1  2  1  0
  2  3  1  0
  3  4  2  0
  4  5  1  0
  5  6  2  0
  6  7  1  0
  7  8  1  0
  8  9  1  0
  9 10  2  0
  9 11  1  0
 11 12  1  0
 11 13  1  0
 13 14  1  0
 13 15  1  0
 15 16  1  0
 16 17  1  0
 16 18  1  0
  6 19  1  0
 19 20  2  0
 20  3  1  0
 13  7  1  0
  1 21  1  0
  1 22  1  0
  1 23  1  0
  4 24  1  0
  5 25  1  0
  7 26  1  0
 11 27  1  0
 12 28  1  0
 12 29  1  0
 12 30  1  0
 14 31  1  0
 14 32  1  0
 14 33  1  0
 15 34  1  0
 15 35  1  0
 16 36  1  0
 17 37  1  0
 17 38  1  0
 17 39  1  0
 18 40  1  0
 18 41  1  0
 18 42  1  0
 19 43  1  0
 20 44  1  0
M  END
>  <energy_abs>  (70) 
43.555450267044755

>  <SMILES>  (70) 
COc1ccc(C2OC(=O)C(C)C2(C)CC(C)C)cc1

>  <cluster_no>  (70) 
70

>  <ccdc_id>  (70) 
33

>  <initial_conformation_id>  (70) 
241

>  <minimize_method>  (70) 
MMFF

$$$$
