%NProcShared=1
%Mem=10GB

#p B3LYP/6-31G* opt freq

test

0  1
C           5.05460         2.82050         2.90290
O           4.26260         1.69950         3.27490
C           3.12970         1.47480         2.54320
C           2.37230         0.37970         2.96050
C           1.18920         0.03540         2.30090
C           0.74070         0.78020         1.20120
C          -0.53810         0.38570         0.48970
O          -1.14950         1.52820        -0.11940
C          -1.93760         1.11080        -1.14600
O          -2.68480         1.84800        -1.76850
C          -1.76200        -0.37380        -1.37600
C          -1.82280        -0.67460        -2.86930
C          -0.43690        -0.67460        -0.64250
C           0.79310        -0.42940        -1.54670
C          -0.35780        -2.09680        -0.01080
C          -0.45410        -3.31360        -0.95840
C           0.45150        -4.44400        -0.45250
C          -1.88630        -3.84710        -1.05960
C           1.50610         1.88320         0.79280
C           2.69050         2.22730         1.45600
H           5.90960         2.86640         3.58430
H           5.44510         2.70770         1.88620
H           4.49290         3.75440         3.01030
H           2.70560        -0.20980         3.81140
H           0.62170        -0.81980         2.66110
H          -1.24970         0.05720         1.26150
H          -2.59760        -0.86510        -0.86230
H          -2.83630        -0.49670        -3.24730
H          -1.56930        -1.71220        -3.09410
H          -1.15700        -0.02370        -3.44660
H           1.72870        -0.60280        -1.00360
H           0.80810        -1.09820        -2.41240
H           0.81580         0.59650        -1.93070
H           0.59850        -2.15650         0.52530
H          -1.12930        -2.19370         0.76510
H          -0.10540        -3.05020        -1.96070
H           0.39100        -5.31690        -1.11130
H           0.16790        -4.75980         0.55740
H           1.49780        -4.12090        -0.42710
H          -2.25500        -4.18150        -0.08360
H          -2.57950        -3.09270        -1.43660
H          -1.93090        -4.70210        -1.74320
H           1.18520         2.49290        -0.05030
H           3.24120         3.09000         1.09640

