
     RDKit          3D

 44 45  0  0  0  0  0  0  0  0999 V2000
    5.0546    2.8205    2.9029 C   0  0  0  0  0  0  0  0  0  0  0  0
    4.2626    1.6995    3.2749 O   0  0  0  0  0  0  0  0  0  0  0  0
    3.1297    1.4748    2.5432 C   0  0  0  0  0  0  0  0  0  0  0  0
    2.3723    0.3797    2.9605 C   0  0  0  0  0  0  0  0  0  0  0  0
    1.1892    0.0354    2.3009 C   0  0  0  0  0  0  0  0  0  0  0  0
    0.7407    0.7802    1.2012 C   0  0  0  0  0  0  0  0  0  0  0  0
   -0.5381    0.3857    0.4897 C   0  0  0  0  0  0  0  0  0  0  0  0
   -1.1495    1.5282   -0.1194 O   0  0  0  0  0  0  0  0  0  0  0  0
   -1.9376    1.1108   -1.1460 C   0  0  0  0  0  0  0  0  0  0  0  0
   -2.6848    1.8480   -1.7685 O   0  0  0  0  0  0  0  0  0  0  0  0
   -1.7620   -0.3738   -1.3760 C   0  0  0  0  0  0  0  0  0  0  0  0
   -1.8228   -0.6746   -2.8693 C   0  0  0  0  0  0  0  0  0  0  0  0
   -0.4369   -0.6746   -0.6425 C   0  0  0  0  0  0  0  0  0  0  0  0
    0.7931   -0.4294   -1.5467 C   0  0  0  0  0  0  0  0  0  0  0  0
   -0.3578   -2.0968   -0.0108 C   0  0  0  0  0  0  0  0  0  0  0  0
   -0.4541   -3.3136   -0.9584 C   0  0  0  0  0  0  0  0  0  0  0  0
    0.4515   -4.4440   -0.4525 C   0  0  0  0  0  0  0  0  0  0  0  0
   -1.8863   -3.8471   -1.0596 C   0  0  0  0  0  0  0  0  0  0  0  0
    1.5061    1.8832    0.7928 C   0  0  0  0  0  0  0  0  0  0  0  0
    2.6905    2.2273    1.4560 C   0  0  0  0  0  0  0  0  0  0  0  0
    5.9096    2.8664    3.5843 H   0  0  0  0  0  0  0  0  0  0  0  0
    5.4451    2.7077    1.8862 H   0  0  0  0  0  0  0  0  0  0  0  0
    4.4929    3.7544    3.0103 H   0  0  0  0  0  0  0  0  0  0  0  0
    2.7056   -0.2098    3.8114 H   0  0  0  0  0  0  0  0  0  0  0  0
    0.6217   -0.8198    2.6611 H   0  0  0  0  0  0  0  0  0  0  0  0
   -1.2497    0.0572    1.2615 H   0  0  0  0  0  0  0  0  0  0  0  0
   -2.5976   -0.8651   -0.8623 H   0  0  0  0  0  0  0  0  0  0  0  0
   -2.8363   -0.4967   -3.2473 H   0  0  0  0  0  0  0  0  0  0  0  0
   -1.5693   -1.7122   -3.0941 H   0  0  0  0  0  0  0  0  0  0  0  0
   -1.1570   -0.0237   -3.4466 H   0  0  0  0  0  0  0  0  0  0  0  0
    1.7287   -0.6028   -1.0036 H   0  0  0  0  0  0  0  0  0  0  0  0
    0.8081   -1.0982   -2.4124 H   0  0  0  0  0  0  0  0  0  0  0  0
    0.8158    0.5965   -1.9307 H   0  0  0  0  0  0  0  0  0  0  0  0
    0.5985   -2.1565    0.5253 H   0  0  0  0  0  0  0  0  0  0  0  0
   -1.1293   -2.1937    0.7651 H   0  0  0  0  0  0  0  0  0  0  0  0
   -0.1054   -3.0502   -1.9607 H   0  0  0  0  0  0  0  0  0  0  0  0
    0.3910   -5.3169   -1.1113 H   0  0  0  0  0  0  0  0  0  0  0  0
    0.1679   -4.7598    0.5574 H   0  0  0  0  0  0  0  0  0  0  0  0
    1.4978   -4.1209   -0.4271 H   0  0  0  0  0  0  0  0  0  0  0  0
   -2.2550   -4.1815   -0.0836 H   0  0  0  0  0  0  0  0  0  0  0  0
   -2.5795   -3.0927   -1.4366 H   0  0  0  0  0  0  0  0  0  0  0  0
   -1.9309   -4.7021   -1.7432 H   0  0  0  0  0  0  0  0  0  0  0  0
    1.1852    2.4929   -0.0503 H   0  0  0  0  0  0  0  0  0  0  0  0
    3.2412    3.0900    1.0964 H   0  0  0  0  0  0  0  0  0  0  0  0
  1  2  1  0
  2  3  1  0
  3  4  2  0
  4  5  1  0
  5  6  2  0
  6  7  1  0
  7  8  1  0
  8  9  1  0
  9 10  2  0
  9 11  1  0
 11 12  1  0
 11 13  1  0
 13 14  1  0
 13 15  1  0
 15 16  1  0
 16 17  1  0
 16 18  1  0
  6 19  1  0
 19 20  2  0
 20  3  1  0
 13  7  1  0
  1 21  1  0
  1 22  1  0
  1 23  1  0
  4 24  1  0
  5 25  1  0
  7 26  1  0
 11 27  1  0
 12 28  1  0
 12 29  1  0
 12 30  1  0
 14 31  1  0
 14 32  1  0
 14 33  1  0
 15 34  1  0
 15 35  1  0
 16 36  1  0
 17 37  1  0
 17 38  1  0
 17 39  1  0
 18 40  1  0
 18 41  1  0
 18 42  1  0
 19 43  1  0
 20 44  1  0
M  END
>  <energy_abs>  (71) 
44.16119344127625

>  <SMILES>  (71) 
COc1ccc(C2OC(=O)C(C)C2(C)CC(C)C)cc1

>  <cluster_no>  (71) 
71

>  <ccdc_id>  (71) 
33

>  <initial_conformation_id>  (71) 
240

>  <minimize_method>  (71) 
MMFF

$$$$
