
     RDKit          3D

 44 45  0  0  0  0  0  0  0  0999 V2000
    4.7661    1.6247    3.9763 C   0  0  0  0  0  0  0  0  0  0  0  0
    4.5309    1.7784    2.5827 O   0  0  0  0  0  0  0  0  0  0  0  0
    3.2688    1.5044    2.1341 C   0  0  0  0  0  0  0  0  0  0  0  0
    2.1956    1.0739    2.9117 C   0  0  0  0  0  0  0  0  0  0  0  0
    0.9503    0.8268    2.3202 C   0  0  0  0  0  0  0  0  0  0  0  0
    0.7556    1.0017    0.9414 C   0  0  0  0  0  0  0  0  0  0  0  0
   -0.5994    0.7165    0.3253 C   0  0  0  0  0  0  0  0  0  0  0  0
   -0.7639    1.4295   -0.9059 O   0  0  0  0  0  0  0  0  0  0  0  0
   -1.7032    0.7965   -1.6577 C   0  0  0  0  0  0  0  0  0  0  0  0
   -2.1592    1.2416   -2.6984 O   0  0  0  0  0  0  0  0  0  0  0  0
   -2.1060   -0.5084   -1.0151 C   0  0  0  0  0  0  0  0  0  0  0  0
   -3.5042   -0.3562   -0.4248 C   0  0  0  0  0  0  0  0  0  0  0  0
   -0.9539   -0.7594   -0.0113 C   0  0  0  0  0  0  0  0  0  0  0  0
   -1.3744   -1.5144    1.2584 C   0  0  0  0  0  0  0  0  0  0  0  0
    0.2344   -1.4992   -0.7225 C   0  0  0  0  0  0  0  0  0  0  0  0
    0.1828   -3.0440   -0.8460 C   0  0  0  0  0  0  0  0  0  0  0  0
    1.4992   -3.5430   -1.4584 C   0  0  0  0  0  0  0  0  0  0  0  0
   -0.9829   -3.5800   -1.6723 C   0  0  0  0  0  0  0  0  0  0  0  0
    1.8410    1.4423    0.1712 C   0  0  0  0  0  0  0  0  0  0  0  0
    3.0828    1.6875    0.7636 C   0  0  0  0  0  0  0  0  0  0  0  0
    5.8107    1.8867    4.1701 H   0  0  0  0  0  0  0  0  0  0  0  0
    4.1383    2.3058    4.5604 H   0  0  0  0  0  0  0  0  0  0  0  0
    4.6201    0.5855    4.2889 H   0  0  0  0  0  0  0  0  0  0  0  0
    2.2907    0.9220    3.9816 H   0  0  0  0  0  0  0  0  0  0  0  0
    0.1294    0.4995    2.9549 H   0  0  0  0  0  0  0  0  0  0  0  0
   -1.3465    1.1452    1.0091 H   0  0  0  0  0  0  0  0  0  0  0  0
   -2.1298   -1.2614   -1.8044 H   0  0  0  0  0  0  0  0  0  0  0  0
   -4.2221   -0.0789   -1.2051 H   0  0  0  0  0  0  0  0  0  0  0  0
   -3.8488   -1.2948    0.0198 H   0  0  0  0  0  0  0  0  0  0  0  0
   -3.5456    0.4269    0.3395 H   0  0  0  0  0  0  0  0  0  0  0  0
   -2.0657   -0.9272    1.8728 H   0  0  0  0  0  0  0  0  0  0  0  0
   -0.5071   -1.7491    1.8847 H   0  0  0  0  0  0  0  0  0  0  0  0
   -1.8760   -2.4573    1.0199 H   0  0  0  0  0  0  0  0  0  0  0  0
    0.3957   -1.0658   -1.7188 H   0  0  0  0  0  0  0  0  0  0  0  0
    1.1512   -1.2908   -0.1584 H   0  0  0  0  0  0  0  0  0  0  0  0
    0.1167   -3.4788    0.1585 H   0  0  0  0  0  0  0  0  0  0  0  0
    1.6366   -3.1554   -2.4737 H   0  0  0  0  0  0  0  0  0  0  0  0
    1.5168   -4.6370   -1.5075 H   0  0  0  0  0  0  0  0  0  0  0  0
    2.3561   -3.2259   -0.8545 H   0  0  0  0  0  0  0  0  0  0  0  0
   -1.9423   -3.3862   -1.1853 H   0  0  0  0  0  0  0  0  0  0  0  0
   -0.9991   -3.1359   -2.6731 H   0  0  0  0  0  0  0  0  0  0  0  0
   -0.9052   -4.6664   -1.7926 H   0  0  0  0  0  0  0  0  0  0  0  0
    1.7340    1.5987   -0.9007 H   0  0  0  0  0  0  0  0  0  0  0  0
    3.9127    2.0275    0.1485 H   0  0  0  0  0  0  0  0  0  0  0  0
  1  2  1  0
  2  3  1  0
  3  4  2  0
  4  5  1  0
  5  6  2  0
  6  7  1  0
  7  8  1  0
  8  9  1  0
  9 10  2  0
  9 11  1  0
 11 12  1  0
 11 13  1  0
 13 14  1  0
 13 15  1  0
 15 16  1  0
 16 17  1  0
 16 18  1  0
  6 19  1  0
 19 20  2  0
 20  3  1  0
 13  7  1  0
  1 21  1  0
  1 22  1  0
  1 23  1  0
  4 24  1  0
  5 25  1  0
  7 26  1  0
 11 27  1  0
 12 28  1  0
 12 29  1  0
 12 30  1  0
 14 31  1  0
 14 32  1  0
 14 33  1  0
 15 34  1  0
 15 35  1  0
 16 36  1  0
 17 37  1  0
 17 38  1  0
 17 39  1  0
 18 40  1  0
 18 41  1  0
 18 42  1  0
 19 43  1  0
 20 44  1  0
M  END
>  <energy_abs>  (73) 
44.60559517243086

>  <SMILES>  (73) 
COc1ccc(C2OC(=O)C(C)C2(C)CC(C)C)cc1

>  <cluster_no>  (73) 
73

>  <ccdc_id>  (73) 
33

>  <initial_conformation_id>  (73) 
238

>  <minimize_method>  (73) 
MMFF

$$$$
