
     RDKit          3D

 44 45  0  0  0  0  0  0  0  0999 V2000
    4.2709    3.6667    2.6981 C   0  0  0  0  0  0  0  0  0  0  0  0
    4.3039    2.2812    2.3789 O   0  0  0  0  0  0  0  0  0  0  0  0
    3.1293    1.7145    1.9696 C   0  0  0  0  0  0  0  0  0  0  0  0
    1.9072    2.3662    1.8273 C   0  0  0  0  0  0  0  0  0  0  0  0
    0.7756    1.6612    1.3951 C   0  0  0  0  0  0  0  0  0  0  0  0
    0.8425    0.2940    1.0836 C   0  0  0  0  0  0  0  0  0  0  0  0
   -0.3686   -0.5047    0.6217 C   0  0  0  0  0  0  0  0  0  0  0  0
   -1.5819    0.1861    0.9662 O   0  0  0  0  0  0  0  0  0  0  0  0
   -2.1368    0.7481   -0.1404 C   0  0  0  0  0  0  0  0  0  0  0  0
   -3.1036    1.4928   -0.1108 O   0  0  0  0  0  0  0  0  0  0  0  0
   -1.3871    0.3436   -1.3815 C   0  0  0  0  0  0  0  0  0  0  0  0
   -0.6672    1.5542   -1.9653 C   0  0  0  0  0  0  0  0  0  0  0  0
   -0.5203   -0.8497   -0.8857 C   0  0  0  0  0  0  0  0  0  0  0  0
    0.7928   -0.9799   -1.6615 C   0  0  0  0  0  0  0  0  0  0  0  0
   -1.4072   -2.1470   -1.0632 C   0  0  0  0  0  0  0  0  0  0  0  0
   -0.8427   -3.5834   -0.9186 C   0  0  0  0  0  0  0  0  0  0  0  0
   -0.0685   -3.8601    0.3636 C   0  0  0  0  0  0  0  0  0  0  0  0
   -0.0594   -4.0640   -2.1433 C   0  0  0  0  0  0  0  0  0  0  0  0
    2.0765   -0.3523    1.2544 C   0  0  0  0  0  0  0  0  0  0  0  0
    3.2051    0.3520    1.6843 C   0  0  0  0  0  0  0  0  0  0  0  0
    3.5942    3.8628    3.5364 H   0  0  0  0  0  0  0  0  0  0  0  0
    4.0017    4.2671    1.8228 H   0  0  0  0  0  0  0  0  0  0  0  0
    5.2780    3.9624    3.0074 H   0  0  0  0  0  0  0  0  0  0  0  0
    1.7922    3.4220    2.0492 H   0  0  0  0  0  0  0  0  0  0  0  0
   -0.1631    2.2069    1.3161 H   0  0  0  0  0  0  0  0  0  0  0  0
   -0.3803   -1.4112    1.2310 H   0  0  0  0  0  0  0  0  0  0  0  0
   -2.1258    0.0067   -2.1183 H   0  0  0  0  0  0  0  0  0  0  0  0
   -1.3785    2.3634   -2.1670 H   0  0  0  0  0  0  0  0  0  0  0  0
   -0.1841    1.3017   -2.9145 H   0  0  0  0  0  0  0  0  0  0  0  0
    0.0907    1.9592   -1.2913 H   0  0  0  0  0  0  0  0  0  0  0  0
    1.4344   -1.7596   -1.2458 H   0  0  0  0  0  0  0  0  0  0  0  0
    0.6005   -1.2185   -2.7134 H   0  0  0  0  0  0  0  0  0  0  0  0
    1.3835   -0.0586   -1.6468 H   0  0  0  0  0  0  0  0  0  0  0  0
   -2.2540   -2.0737   -0.3654 H   0  0  0  0  0  0  0  0  0  0  0  0
   -1.8655   -2.1080   -2.0619 H   0  0  0  0  0  0  0  0  0  0  0  0
   -1.7314   -4.2309   -0.8792 H   0  0  0  0  0  0  0  0  0  0  0  0
   -0.6731   -3.6216    1.2440 H   0  0  0  0  0  0  0  0  0  0  0  0
    0.8640   -3.2936    0.4097 H   0  0  0  0  0  0  0  0  0  0  0  0
    0.1929   -4.9222    0.4313 H   0  0  0  0  0  0  0  0  0  0  0  0
    0.0582   -5.1533   -2.1102 H   0  0  0  0  0  0  0  0  0  0  0  0
    0.9452   -3.6400   -2.1959 H   0  0  0  0  0  0  0  0  0  0  0  0
   -0.5872   -3.8210   -3.0711 H   0  0  0  0  0  0  0  0  0  0  0  0
    2.1775   -1.4170    1.0592 H   0  0  0  0  0  0  0  0  0  0  0  0
    4.1519   -0.1693    1.8036 H   0  0  0  0  0  0  0  0  0  0  0  0
  1  2  1  0
  2  3  1  0
  3  4  2  0
  4  5  1  0
  5  6  2  0
  6  7  1  0
  7  8  1  0
  8  9  1  0
  9 10  2  0
  9 11  1  0
 11 12  1  0
 11 13  1  0
 13 14  1  0
 13 15  1  0
 15 16  1  0
 16 17  1  0
 16 18  1  0
  6 19  1  0
 19 20  2  0
 20  3  1  0
 13  7  1  0
  1 21  1  0
  1 22  1  0
  1 23  1  0
  4 24  1  0
  5 25  1  0
  7 26  1  0
 11 27  1  0
 12 28  1  0
 12 29  1  0
 12 30  1  0
 14 31  1  0
 14 32  1  0
 14 33  1  0
 15 34  1  0
 15 35  1  0
 16 36  1  0
 17 37  1  0
 17 38  1  0
 17 39  1  0
 18 40  1  0
 18 41  1  0
 18 42  1  0
 19 43  1  0
 20 44  1  0
M  END
>  <energy_abs>  (75) 
50.37173450068225

>  <SMILES>  (75) 
COc1ccc(C2OC(=O)C(C)C2(C)CC(C)C)cc1

>  <cluster_no>  (75) 
75

>  <ccdc_id>  (75) 
33

>  <initial_conformation_id>  (75) 
236

>  <minimize_method>  (75) 
MMFF

$$$$
