%NProcShared=1
%Mem=10GB

#p B3LYP/6-31G* opt freq

test

0  1
C           5.26030         3.02480         2.07200
O           4.60990         1.84900         2.53770
C           3.37490         1.57970         2.01640
C           2.76620         0.42960         2.51980
C           1.50170         0.03600         2.07350
C           0.81940         0.78550         1.10500
C          -0.54630         0.33650         0.62460
O          -1.31430         1.45340         0.15240
C          -2.21430         1.02010        -0.77360
O          -3.06090         1.73240        -1.28860
C          -2.03160        -0.45480        -1.04000
C          -3.15250        -1.20420        -0.32590
C          -0.58900        -0.69090        -0.53390
C           0.39010        -0.30400        -1.66860
C          -0.29540        -2.12880        -0.02220
C          -0.42880        -3.27040        -1.05910
C           0.91640        -3.62590        -1.70230
C          -0.98570        -4.53060        -0.38440
C           1.43680         1.94430         0.61010
C           2.70350         2.33770         1.05950
H           6.22300         3.10020         2.58670
H           5.46130         2.96510         0.99730
H           4.68050         3.92070         2.31760
H           3.28120        -0.16460         3.27100
H           1.05590        -0.86140         2.49680
H          -1.08870        -0.04200         1.50250
H          -2.10190        -0.62950        -2.11960
H          -3.11240        -2.27570        -0.53540
H          -4.13090        -0.84440        -0.66460
H          -3.11870        -1.06200         0.75920
H           0.30010         0.75120        -1.94970
H           1.43070        -0.48140        -1.37660
H           0.19280        -0.88340        -2.57660
H           0.71590        -2.16200         0.40200
H          -0.96440        -2.33100         0.82450
H          -1.12750        -2.98110        -1.85180
H           0.79350        -4.43890        -2.42630
H           1.35440        -2.78070        -2.23680
H           1.64060        -3.95690        -0.94970
H          -1.97360        -4.34140         0.04750
H          -0.32560        -4.87550         0.41910
H          -1.09290        -5.34520        -1.10870
H           0.93430         2.56020        -0.13400
H           3.13180         3.24240         0.64130

