
     RDKit          3D

 44 45  0  0  0  0  0  0  0  0999 V2000
    5.2603    3.0248    2.0720 C   0  0  0  0  0  0  0  0  0  0  0  0
    4.6099    1.8490    2.5377 O   0  0  0  0  0  0  0  0  0  0  0  0
    3.3749    1.5797    2.0164 C   0  0  0  0  0  0  0  0  0  0  0  0
    2.7662    0.4296    2.5198 C   0  0  0  0  0  0  0  0  0  0  0  0
    1.5017    0.0360    2.0735 C   0  0  0  0  0  0  0  0  0  0  0  0
    0.8194    0.7855    1.1050 C   0  0  0  0  0  0  0  0  0  0  0  0
   -0.5463    0.3365    0.6246 C   0  0  0  0  0  0  0  0  0  0  0  0
   -1.3143    1.4534    0.1524 O   0  0  0  0  0  0  0  0  0  0  0  0
   -2.2143    1.0201   -0.7736 C   0  0  0  0  0  0  0  0  0  0  0  0
   -3.0609    1.7324   -1.2886 O   0  0  0  0  0  0  0  0  0  0  0  0
   -2.0316   -0.4548   -1.0400 C   0  0  0  0  0  0  0  0  0  0  0  0
   -3.1525   -1.2042   -0.3259 C   0  0  0  0  0  0  0  0  0  0  0  0
   -0.5890   -0.6909   -0.5339 C   0  0  0  0  0  0  0  0  0  0  0  0
    0.3901   -0.3040   -1.6686 C   0  0  0  0  0  0  0  0  0  0  0  0
   -0.2954   -2.1288   -0.0222 C   0  0  0  0  0  0  0  0  0  0  0  0
   -0.4288   -3.2704   -1.0591 C   0  0  0  0  0  0  0  0  0  0  0  0
    0.9164   -3.6259   -1.7023 C   0  0  0  0  0  0  0  0  0  0  0  0
   -0.9857   -4.5306   -0.3844 C   0  0  0  0  0  0  0  0  0  0  0  0
    1.4368    1.9443    0.6101 C   0  0  0  0  0  0  0  0  0  0  0  0
    2.7035    2.3377    1.0595 C   0  0  0  0  0  0  0  0  0  0  0  0
    6.2230    3.1002    2.5867 H   0  0  0  0  0  0  0  0  0  0  0  0
    5.4613    2.9651    0.9973 H   0  0  0  0  0  0  0  0  0  0  0  0
    4.6805    3.9207    2.3176 H   0  0  0  0  0  0  0  0  0  0  0  0
    3.2812   -0.1646    3.2710 H   0  0  0  0  0  0  0  0  0  0  0  0
    1.0559   -0.8614    2.4968 H   0  0  0  0  0  0  0  0  0  0  0  0
   -1.0887   -0.0420    1.5025 H   0  0  0  0  0  0  0  0  0  0  0  0
   -2.1019   -0.6295   -2.1196 H   0  0  0  0  0  0  0  0  0  0  0  0
   -3.1124   -2.2757   -0.5354 H   0  0  0  0  0  0  0  0  0  0  0  0
   -4.1309   -0.8444   -0.6646 H   0  0  0  0  0  0  0  0  0  0  0  0
   -3.1187   -1.0620    0.7592 H   0  0  0  0  0  0  0  0  0  0  0  0
    0.3001    0.7512   -1.9497 H   0  0  0  0  0  0  0  0  0  0  0  0
    1.4307   -0.4814   -1.3766 H   0  0  0  0  0  0  0  0  0  0  0  0
    0.1928   -0.8834   -2.5766 H   0  0  0  0  0  0  0  0  0  0  0  0
    0.7159   -2.1620    0.4020 H   0  0  0  0  0  0  0  0  0  0  0  0
   -0.9644   -2.3310    0.8245 H   0  0  0  0  0  0  0  0  0  0  0  0
   -1.1275   -2.9811   -1.8518 H   0  0  0  0  0  0  0  0  0  0  0  0
    0.7935   -4.4389   -2.4263 H   0  0  0  0  0  0  0  0  0  0  0  0
    1.3544   -2.7807   -2.2368 H   0  0  0  0  0  0  0  0  0  0  0  0
    1.6406   -3.9569   -0.9497 H   0  0  0  0  0  0  0  0  0  0  0  0
   -1.9736   -4.3414    0.0475 H   0  0  0  0  0  0  0  0  0  0  0  0
   -0.3256   -4.8755    0.4191 H   0  0  0  0  0  0  0  0  0  0  0  0
   -1.0929   -5.3452   -1.1087 H   0  0  0  0  0  0  0  0  0  0  0  0
    0.9343    2.5602   -0.1340 H   0  0  0  0  0  0  0  0  0  0  0  0
    3.1318    3.2424    0.6413 H   0  0  0  0  0  0  0  0  0  0  0  0
  1  2  1  0
  2  3  1  0
  3  4  2  0
  4  5  1  0
  5  6  2  0
  6  7  1  0
  7  8  1  0
  8  9  1  0
  9 10  2  0
  9 11  1  0
 11 12  1  0
 11 13  1  0
 13 14  1  0
 13 15  1  0
 15 16  1  0
 16 17  1  0
 16 18  1  0
  6 19  1  0
 19 20  2  0
 20  3  1  0
 13  7  1  0
  1 21  1  0
  1 22  1  0
  1 23  1  0
  4 24  1  0
  5 25  1  0
  7 26  1  0
 11 27  1  0
 12 28  1  0
 12 29  1  0
 12 30  1  0
 14 31  1  0
 14 32  1  0
 14 33  1  0
 15 34  1  0
 15 35  1  0
 16 36  1  0
 17 37  1  0
 17 38  1  0
 17 39  1  0
 18 40  1  0
 18 41  1  0
 18 42  1  0
 19 43  1  0
 20 44  1  0
M  END
>  <energy_abs>  (76) 
43.555450273725455

>  <SMILES>  (76) 
COc1ccc(C2OC(=O)C(C)C2(C)CC(C)C)cc1

>  <cluster_no>  (76) 
76

>  <ccdc_id>  (76) 
33

>  <initial_conformation_id>  (76) 
234

>  <minimize_method>  (76) 
MMFF

$$$$
