
     RDKit          3D

 44 45  0  0  0  0  0  0  0  0999 V2000
    5.5939    1.8580    2.5790 C   0  0  0  0  0  0  0  0  0  0  0  0
    4.2489    2.1923    2.8962 O   0  0  0  0  0  0  0  0  0  0  0  0
    3.2839    1.7662    2.0265 C   0  0  0  0  0  0  0  0  0  0  0  0
    3.4926    1.0212    0.8678 C   0  0  0  0  0  0  0  0  0  0  0  0
    2.4077    0.6483    0.0642 C   0  0  0  0  0  0  0  0  0  0  0  0
    1.0943    1.0068    0.4054 C   0  0  0  0  0  0  0  0  0  0  0  0
   -0.0634    0.5818   -0.4777 C   0  0  0  0  0  0  0  0  0  0  0  0
   -1.1180    1.5532   -0.4155 O   0  0  0  0  0  0  0  0  0  0  0  0
   -2.3055    0.9422   -0.6792 C   0  0  0  0  0  0  0  0  0  0  0  0
   -3.3724    1.5282   -0.7647 O   0  0  0  0  0  0  0  0  0  0  0  0
   -2.1010   -0.5396   -0.8864 C   0  0  0  0  0  0  0  0  0  0  0  0
   -2.1523   -0.7963   -2.3906 C   0  0  0  0  0  0  0  0  0  0  0  0
   -0.7507   -0.7765   -0.1683 C   0  0  0  0  0  0  0  0  0  0  0  0
   -1.0205   -0.9378    1.3494 C   0  0  0  0  0  0  0  0  0  0  0  0
    0.1043   -1.9655   -0.6936 C   0  0  0  0  0  0  0  0  0  0  0  0
   -0.2525   -3.4012   -0.2373 C   0  0  0  0  0  0  0  0  0  0  0  0
   -1.6268   -3.8882   -0.6862 C   0  0  0  0  0  0  0  0  0  0  0  0
    0.8150   -4.3762   -0.7531 C   0  0  0  0  0  0  0  0  0  0  0  0
    0.8996    1.7658    1.5678 C   0  0  0  0  0  0  0  0  0  0  0  0
    1.9833    2.1366    2.3688 C   0  0  0  0  0  0  0  0  0  0  0  0
    5.8980    2.3049    1.6267 H   0  0  0  0  0  0  0  0  0  0  0  0
    6.2354    2.2743    3.3617 H   0  0  0  0  0  0  0  0  0  0  0  0
    5.7395    0.7728    2.5716 H   0  0  0  0  0  0  0  0  0  0  0  0
    4.4859    0.7153    0.5569 H   0  0  0  0  0  0  0  0  0  0  0  0
    2.6043    0.0750   -0.8397 H   0  0  0  0  0  0  0  0  0  0  0  0
    0.2975    0.6028   -1.5157 H   0  0  0  0  0  0  0  0  0  0  0  0
   -2.9156   -1.0731   -0.3859 H   0  0  0  0  0  0  0  0  0  0  0  0
   -1.3769   -0.2431   -2.9311 H   0  0  0  0  0  0  0  0  0  0  0  0
   -3.1164   -0.4731   -2.8003 H   0  0  0  0  0  0  0  0  0  0  0  0
   -2.0411   -1.8557   -2.6269 H   0  0  0  0  0  0  0  0  0  0  0  0
   -1.5006   -0.0529    1.7810 H   0  0  0  0  0  0  0  0  0  0  0  0
   -0.0918   -1.1173    1.9019 H   0  0  0  0  0  0  0  0  0  0  0  0
   -1.6900   -1.7814    1.5483 H   0  0  0  0  0  0  0  0  0  0  0  0
    1.1355   -1.7988   -0.3580 H   0  0  0  0  0  0  0  0  0  0  0  0
    0.1582   -1.9352   -1.7887 H   0  0  0  0  0  0  0  0  0  0  0  0
   -0.2158   -3.4460    0.8576 H   0  0  0  0  0  0  0  0  0  0  0  0
   -2.4297   -3.2690   -0.2819 H   0  0  0  0  0  0  0  0  0  0  0  0
   -1.7087   -3.9044   -1.7770 H   0  0  0  0  0  0  0  0  0  0  0  0
   -1.8050   -4.9096   -0.3309 H   0  0  0  0  0  0  0  0  0  0  0  0
    0.6145   -5.3947   -0.4035 H   0  0  0  0  0  0  0  0  0  0  0  0
    1.8096   -4.0928   -0.3927 H   0  0  0  0  0  0  0  0  0  0  0  0
    0.8421   -4.3924   -1.8481 H   0  0  0  0  0  0  0  0  0  0  0  0
   -0.0990    2.0826    1.8626 H   0  0  0  0  0  0  0  0  0  0  0  0
    1.8100    2.7249    3.2669 H   0  0  0  0  0  0  0  0  0  0  0  0
  1  2  1  0
  2  3  1  0
  3  4  2  0
  4  5  1  0
  5  6  2  0
  6  7  1  0
  7  8  1  0
  8  9  1  0
  9 10  2  0
  9 11  1  0
 11 12  1  0
 11 13  1  0
 13 14  1  0
 13 15  1  0
 15 16  1  0
 16 17  1  0
 16 18  1  0
  6 19  1  0
 19 20  2  0
 20  3  1  0
 13  7  1  0
  1 21  1  0
  1 22  1  0
  1 23  1  0
  4 24  1  0
  5 25  1  0
  7 26  1  0
 11 27  1  0
 12 28  1  0
 12 29  1  0
 12 30  1  0
 14 31  1  0
 14 32  1  0
 14 33  1  0
 15 34  1  0
 15 35  1  0
 16 36  1  0
 17 37  1  0
 17 38  1  0
 17 39  1  0
 18 40  1  0
 18 41  1  0
 18 42  1  0
 19 43  1  0
 20 44  1  0
M  END
>  <energy_abs>  (77) 
44.308415792635344

>  <SMILES>  (77) 
COc1ccc(C2OC(=O)C(C)C2(C)CC(C)C)cc1

>  <cluster_no>  (77) 
77

>  <ccdc_id>  (77) 
33

>  <initial_conformation_id>  (77) 
233

>  <minimize_method>  (77) 
MMFF

$$$$
