
     RDKit          3D

 44 45  0  0  0  0  0  0  0  0999 V2000
    5.3985    2.6289    1.2204 C   0  0  0  0  0  0  0  0  0  0  0  0
    4.6468    1.8154    2.1122 O   0  0  0  0  0  0  0  0  0  0  0  0
    3.3574    1.5353    1.7541 C   0  0  0  0  0  0  0  0  0  0  0  0
    2.6485    0.7664    2.6767 C   0  0  0  0  0  0  0  0  0  0  0  0
    1.3197    0.4073    2.4356 C   0  0  0  0  0  0  0  0  0  0  0  0
    0.6692    0.8073    1.2574 C   0  0  0  0  0  0  0  0  0  0  0  0
   -0.7703    0.3769    1.0224 C   0  0  0  0  0  0  0  0  0  0  0  0
   -1.4811    1.4362    0.3711 O   0  0  0  0  0  0  0  0  0  0  0  0
   -1.6832    1.1245   -0.9349 C   0  0  0  0  0  0  0  0  0  0  0  0
   -2.1421    1.9094   -1.7501 O   0  0  0  0  0  0  0  0  0  0  0  0
   -1.2441   -0.2915   -1.2302 C   0  0  0  0  0  0  0  0  0  0  0  0
   -2.2869   -0.9318   -2.1427 C   0  0  0  0  0  0  0  0  0  0  0  0
   -1.0562   -0.9065    0.1699 C   0  0  0  0  0  0  0  0  0  0  0  0
   -2.3716   -1.5077    0.7244 C   0  0  0  0  0  0  0  0  0  0  0  0
    0.1132   -1.9341    0.2977 C   0  0  0  0  0  0  0  0  0  0  0  0
    0.2237   -3.2407   -0.5216 C   0  0  0  0  0  0  0  0  0  0  0  0
   -0.9717   -4.1807   -0.4458 C   0  0  0  0  0  0  0  0  0  0  0  0
    0.6776   -3.0219   -1.9650 C   0  0  0  0  0  0  0  0  0  0  0  0
    1.3906    1.5832    0.3374 C   0  0  0  0  0  0  0  0  0  0  0  0
    2.7222    1.9437    0.5833 C   0  0  0  0  0  0  0  0  0  0  0  0
    6.3928    2.7705    1.6548 H   0  0  0  0  0  0  0  0  0  0  0  0
    4.9413    3.6174    1.1062 H   0  0  0  0  0  0  0  0  0  0  0  0
    5.5261    2.1370    0.2505 H   0  0  0  0  0  0  0  0  0  0  0  0
    3.1351    0.4456    3.5948 H   0  0  0  0  0  0  0  0  0  0  0  0
    0.7989   -0.1924    3.1794 H   0  0  0  0  0  0  0  0  0  0  0  0
   -1.2355    0.2756    2.0121 H   0  0  0  0  0  0  0  0  0  0  0  0
   -0.2791   -0.2249   -1.7463 H   0  0  0  0  0  0  0  0  0  0  0  0
   -2.1407   -2.0052   -2.2596 H   0  0  0  0  0  0  0  0  0  0  0  0
   -3.3072   -0.7664   -1.7783 H   0  0  0  0  0  0  0  0  0  0  0  0
   -2.2369   -0.4841   -3.1421 H   0  0  0  0  0  0  0  0  0  0  0  0
   -2.2205   -1.9119    1.7320 H   0  0  0  0  0  0  0  0  0  0  0  0
   -3.1605   -0.7493    0.7961 H   0  0  0  0  0  0  0  0  0  0  0  0
   -2.7683   -2.3122    0.1045 H   0  0  0  0  0  0  0  0  0  0  0  0
    0.1606   -2.2300    1.3562 H   0  0  0  0  0  0  0  0  0  0  0  0
    1.0571   -1.4093    0.1054 H   0  0  0  0  0  0  0  0  0  0  0  0
    1.0520   -3.7891   -0.0474 H   0  0  0  0  0  0  0  0  0  0  0  0
   -1.8045   -3.8452   -1.0662 H   0  0  0  0  0  0  0  0  0  0  0  0
   -1.3184   -4.2959    0.5860 H   0  0  0  0  0  0  0  0  0  0  0  0
   -0.6914   -5.1766   -0.8080 H   0  0  0  0  0  0  0  0  0  0  0  0
   -0.0903   -2.5600   -2.5847 H   0  0  0  0  0  0  0  0  0  0  0  0
    1.5697   -2.3878   -2.0025 H   0  0  0  0  0  0  0  0  0  0  0  0
    0.9373   -3.9792   -2.4307 H   0  0  0  0  0  0  0  0  0  0  0  0
    0.9295    1.9335   -0.5831 H   0  0  0  0  0  0  0  0  0  0  0  0
    3.2297    2.5480   -0.1614 H   0  0  0  0  0  0  0  0  0  0  0  0
  1  2  1  0
  2  3  1  0
  3  4  2  0
  4  5  1  0
  5  6  2  0
  6  7  1  0
  7  8  1  0
  8  9  1  0
  9 10  2  0
  9 11  1  0
 11 12  1  0
 11 13  1  0
 13 14  1  0
 13 15  1  0
 15 16  1  0
 16 17  1  0
 16 18  1  0
  6 19  1  0
 19 20  2  0
 20  3  1  0
 13  7  1  0
  1 21  1  0
  1 22  1  0
  1 23  1  0
  4 24  1  0
  5 25  1  0
  7 26  1  0
 11 27  1  0
 12 28  1  0
 12 29  1  0
 12 30  1  0
 14 31  1  0
 14 32  1  0
 14 33  1  0
 15 34  1  0
 15 35  1  0
 16 36  1  0
 17 37  1  0
 17 38  1  0
 17 39  1  0
 18 40  1  0
 18 41  1  0
 18 42  1  0
 19 43  1  0
 20 44  1  0
M  END
>  <energy_abs>  (78) 
51.10598966056391

>  <SMILES>  (78) 
COc1ccc(C2OC(=O)C(C)C2(C)CC(C)C)cc1

>  <cluster_no>  (78) 
78

>  <ccdc_id>  (78) 
33

>  <initial_conformation_id>  (78) 
232

>  <minimize_method>  (78) 
MMFF

$$$$
