
     RDKit          3D

 44 45  0  0  0  0  0  0  0  0999 V2000
    5.3262    1.6950    3.1737 C   0  0  0  0  0  0  0  0  0  0  0  0
    4.6912    2.1900    2.0019 O   0  0  0  0  0  0  0  0  0  0  0  0
    3.4344    1.7227    1.7350 C   0  0  0  0  0  0  0  0  0  0  0  0
    2.7234    0.7961    2.4945 C   0  0  0  0  0  0  0  0  0  0  0  0
    1.4376    0.4015    2.1032 C   0  0  0  0  0  0  0  0  0  0  0  0
    0.8403    0.9197    0.9436 C   0  0  0  0  0  0  0  0  0  0  0  0
   -0.5497    0.4675    0.5378 C   0  0  0  0  0  0  0  0  0  0  0  0
   -1.2293    1.5158   -0.1707 O   0  0  0  0  0  0  0  0  0  0  0  0
   -2.1467    0.9651   -1.0136 C   0  0  0  0  0  0  0  0  0  0  0  0
   -2.9156    1.6115   -1.7062 O   0  0  0  0  0  0  0  0  0  0  0  0
   -2.0991   -0.5422   -0.9280 C   0  0  0  0  0  0  0  0  0  0  0  0
   -3.2706   -0.9696   -0.0443 C   0  0  0  0  0  0  0  0  0  0  0  0
   -0.6670   -0.7781   -0.3866 C   0  0  0  0  0  0  0  0  0  0  0  0
    0.3311   -0.6776   -1.5647 C   0  0  0  0  0  0  0  0  0  0  0  0
   -0.4599   -2.0905    0.4231 C   0  0  0  0  0  0  0  0  0  0  0  0
   -0.3456   -3.4742   -0.2682 C   0  0  0  0  0  0  0  0  0  0  0  0
    1.0560   -3.7582   -0.8192 C   0  0  0  0  0  0  0  0  0  0  0  0
   -1.4035   -3.7872   -1.3206 C   0  0  0  0  0  0  0  0  0  0  0  0
    1.5621    1.8599    0.1951 C   0  0  0  0  0  0  0  0  0  0  0  0
    2.8453    2.2521    0.5867 C   0  0  0  0  0  0  0  0  0  0  0  0
    5.4798    0.6126    3.1120 H   0  0  0  0  0  0  0  0  0  0  0  0
    4.7618    1.9642    4.0726 H   0  0  0  0  0  0  0  0  0  0  0  0
    6.3108    2.1671    3.2452 H   0  0  0  0  0  0  0  0  0  0  0  0
    3.1365    0.3619    3.3987 H   0  0  0  0  0  0  0  0  0  0  0  0
    0.9040   -0.3160    2.7234 H   0  0  0  0  0  0  0  0  0  0  0  0
   -1.1213    0.3172    1.4643 H   0  0  0  0  0  0  0  0  0  0  0  0
   -2.2151   -0.9574   -1.9343 H   0  0  0  0  0  0  0  0  0  0  0  0
   -3.2333   -0.5047    0.9467 H   0  0  0  0  0  0  0  0  0  0  0  0
   -3.3122   -2.0508    0.0932 H   0  0  0  0  0  0  0  0  0  0  0  0
   -4.2199   -0.6644   -0.5001 H   0  0  0  0  0  0  0  0  0  0  0  0
    0.1028   -1.4039   -2.3492 H   0  0  0  0  0  0  0  0  0  0  0  0
    1.3598   -0.8510   -1.2315 H   0  0  0  0  0  0  0  0  0  0  0  0
    0.3047    0.3053   -2.0480 H   0  0  0  0  0  0  0  0  0  0  0  0
    0.4509   -1.9790    1.0241 H   0  0  0  0  0  0  0  0  0  0  0  0
   -1.2613   -2.1667    1.1694 H   0  0  0  0  0  0  0  0  0  0  0  0
   -0.4894   -4.2088    0.5376 H   0  0  0  0  0  0  0  0  0  0  0  0
    1.1619   -4.8247   -1.0490 H   0  0  0  0  0  0  0  0  0  0  0  0
    1.2633   -3.2122   -1.7420 H   0  0  0  0  0  0  0  0  0  0  0  0
    1.8287   -3.5046   -0.0862 H   0  0  0  0  0  0  0  0  0  0  0  0
   -2.4096   -3.7301   -0.8998 H   0  0  0  0  0  0  0  0  0  0  0  0
   -1.2763   -4.8095   -1.6950 H   0  0  0  0  0  0  0  0  0  0  0  0
   -1.3444   -3.1201   -2.1831 H   0  0  0  0  0  0  0  0  0  0  0  0
    1.1327    2.3030   -0.7015 H   0  0  0  0  0  0  0  0  0  0  0  0
    3.3882    2.9820   -0.0092 H   0  0  0  0  0  0  0  0  0  0  0  0
  1  2  1  0
  2  3  1  0
  3  4  2  0
  4  5  1  0
  5  6  2  0
  6  7  1  0
  7  8  1  0
  8  9  1  0
  9 10  2  0
  9 11  1  0
 11 12  1  0
 11 13  1  0
 13 14  1  0
 13 15  1  0
 15 16  1  0
 16 17  1  0
 16 18  1  0
  6 19  1  0
 19 20  2  0
 20  3  1  0
 13  7  1  0
  1 21  1  0
  1 22  1  0
  1 23  1  0
  4 24  1  0
  5 25  1  0
  7 26  1  0
 11 27  1  0
 12 28  1  0
 12 29  1  0
 12 30  1  0
 14 31  1  0
 14 32  1  0
 14 33  1  0
 15 34  1  0
 15 35  1  0
 16 36  1  0
 17 37  1  0
 17 38  1  0
 17 39  1  0
 18 40  1  0
 18 41  1  0
 18 42  1  0
 19 43  1  0
 20 44  1  0
M  END
>  <energy_abs>  (79) 
47.98878901053976

>  <SMILES>  (79) 
COc1ccc(C2OC(=O)C(C)C2(C)CC(C)C)cc1

>  <cluster_no>  (79) 
79

>  <ccdc_id>  (79) 
33

>  <initial_conformation_id>  (79) 
231

>  <minimize_method>  (79) 
MMFF

$$$$
