%NProcShared=1
%Mem=10GB

#p B3LYP/6-31G* opt freq

test

0  1
C           3.66390         2.38200         4.68310
O           3.73920         1.18410         3.92040
C           2.88030         1.07180         2.86280
C           1.92780         2.00980         2.47370
C           1.10830         1.76390         1.36460
C           1.22160         0.57670         0.62210
C           0.32880         0.29520        -0.57370
O          -0.23750         1.52300        -1.07020
C          -1.45410         1.27950        -1.63200
O          -2.13730         2.13320        -2.17270
C          -1.79070        -0.18500        -1.51380
C          -3.28690        -0.42220        -1.36420
C          -0.88870        -0.62900        -0.34180
C          -1.58780        -0.31100         1.01270
C          -0.57000        -2.15310        -0.33310
C           0.41920        -2.77320        -1.35070
C          -0.03630        -2.72180        -2.80620
C           0.66880        -4.23930        -0.96330
C           2.18750        -0.35580         1.02330
C           3.00420        -0.10940         2.13140
H           4.41350         2.31980         5.47790
H           3.90150         3.25710         4.06920
H           2.68280         2.48610         5.15840
H           1.79280         2.94490         3.00680
H           0.37450         2.51950         1.08790
H           0.96690        -0.07000        -1.38740
H          -1.47350        -0.63090        -2.45620
H          -3.72900         0.19600        -0.57610
H          -3.50270        -1.47370        -1.15320
H          -3.80480        -0.15720        -2.29320
H          -1.88600         0.74060         1.08610
H          -2.48590        -0.92380         1.15000
H          -0.93460        -0.52990         1.86470
H          -1.51900        -2.70330        -0.39810
H          -0.17040        -2.39110         0.66340
H           1.38530        -2.26440        -1.28480
H           0.09520        -1.71990        -3.22290
H          -1.08450        -3.01970        -2.91030
H           0.56530        -3.39150        -3.43120
H           1.05370        -4.31360         0.05940
H          -0.25290        -4.82820        -1.02460
H           1.40980        -4.69840        -1.62660
H           2.32640        -1.28680         0.48250
H           3.74780        -0.84630         2.42600

