
     RDKit          3D

 44 45  0  0  0  0  0  0  0  0999 V2000
    3.6639    2.3820    4.6831 C   0  0  0  0  0  0  0  0  0  0  0  0
    3.7392    1.1841    3.9204 O   0  0  0  0  0  0  0  0  0  0  0  0
    2.8803    1.0718    2.8628 C   0  0  0  0  0  0  0  0  0  0  0  0
    1.9278    2.0098    2.4737 C   0  0  0  0  0  0  0  0  0  0  0  0
    1.1083    1.7639    1.3646 C   0  0  0  0  0  0  0  0  0  0  0  0
    1.2216    0.5767    0.6221 C   0  0  0  0  0  0  0  0  0  0  0  0
    0.3288    0.2952   -0.5737 C   0  0  0  0  0  0  0  0  0  0  0  0
   -0.2375    1.5230   -1.0702 O   0  0  0  0  0  0  0  0  0  0  0  0
   -1.4541    1.2795   -1.6320 C   0  0  0  0  0  0  0  0  0  0  0  0
   -2.1373    2.1332   -2.1727 O   0  0  0  0  0  0  0  0  0  0  0  0
   -1.7907   -0.1850   -1.5138 C   0  0  0  0  0  0  0  0  0  0  0  0
   -3.2869   -0.4222   -1.3642 C   0  0  0  0  0  0  0  0  0  0  0  0
   -0.8887   -0.6290   -0.3418 C   0  0  0  0  0  0  0  0  0  0  0  0
   -1.5878   -0.3110    1.0127 C   0  0  0  0  0  0  0  0  0  0  0  0
   -0.5700   -2.1531   -0.3331 C   0  0  0  0  0  0  0  0  0  0  0  0
    0.4192   -2.7732   -1.3507 C   0  0  0  0  0  0  0  0  0  0  0  0
   -0.0363   -2.7218   -2.8062 C   0  0  0  0  0  0  0  0  0  0  0  0
    0.6688   -4.2393   -0.9633 C   0  0  0  0  0  0  0  0  0  0  0  0
    2.1875   -0.3558    1.0233 C   0  0  0  0  0  0  0  0  0  0  0  0
    3.0042   -0.1094    2.1314 C   0  0  0  0  0  0  0  0  0  0  0  0
    4.4135    2.3198    5.4779 H   0  0  0  0  0  0  0  0  0  0  0  0
    3.9015    3.2571    4.0692 H   0  0  0  0  0  0  0  0  0  0  0  0
    2.6828    2.4861    5.1584 H   0  0  0  0  0  0  0  0  0  0  0  0
    1.7928    2.9449    3.0068 H   0  0  0  0  0  0  0  0  0  0  0  0
    0.3745    2.5195    1.0879 H   0  0  0  0  0  0  0  0  0  0  0  0
    0.9669   -0.0700   -1.3874 H   0  0  0  0  0  0  0  0  0  0  0  0
   -1.4735   -0.6309   -2.4562 H   0  0  0  0  0  0  0  0  0  0  0  0
   -3.7290    0.1960   -0.5761 H   0  0  0  0  0  0  0  0  0  0  0  0
   -3.5027   -1.4737   -1.1532 H   0  0  0  0  0  0  0  0  0  0  0  0
   -3.8048   -0.1572   -2.2932 H   0  0  0  0  0  0  0  0  0  0  0  0
   -1.8860    0.7406    1.0861 H   0  0  0  0  0  0  0  0  0  0  0  0
   -2.4859   -0.9238    1.1500 H   0  0  0  0  0  0  0  0  0  0  0  0
   -0.9346   -0.5299    1.8647 H   0  0  0  0  0  0  0  0  0  0  0  0
   -1.5190   -2.7033   -0.3981 H   0  0  0  0  0  0  0  0  0  0  0  0
   -0.1704   -2.3911    0.6634 H   0  0  0  0  0  0  0  0  0  0  0  0
    1.3853   -2.2644   -1.2848 H   0  0  0  0  0  0  0  0  0  0  0  0
    0.0952   -1.7199   -3.2229 H   0  0  0  0  0  0  0  0  0  0  0  0
   -1.0845   -3.0197   -2.9103 H   0  0  0  0  0  0  0  0  0  0  0  0
    0.5653   -3.3915   -3.4312 H   0  0  0  0  0  0  0  0  0  0  0  0
    1.0537   -4.3136    0.0594 H   0  0  0  0  0  0  0  0  0  0  0  0
   -0.2529   -4.8282   -1.0246 H   0  0  0  0  0  0  0  0  0  0  0  0
    1.4098   -4.6984   -1.6266 H   0  0  0  0  0  0  0  0  0  0  0  0
    2.3264   -1.2868    0.4825 H   0  0  0  0  0  0  0  0  0  0  0  0
    3.7478   -0.8463    2.4260 H   0  0  0  0  0  0  0  0  0  0  0  0
  1  2  1  0
  2  3  1  0
  3  4  2  0
  4  5  1  0
  5  6  2  0
  6  7  1  0
  7  8  1  0
  8  9  1  0
  9 10  2  0
  9 11  1  0
 11 12  1  0
 11 13  1  0
 13 14  1  0
 13 15  1  0
 15 16  1  0
 16 17  1  0
 16 18  1  0
  6 19  1  0
 19 20  2  0
 20  3  1  0
 13  7  1  0
  1 21  1  0
  1 22  1  0
  1 23  1  0
  4 24  1  0
  5 25  1  0
  7 26  1  0
 11 27  1  0
 12 28  1  0
 12 29  1  0
 12 30  1  0
 14 31  1  0
 14 32  1  0
 14 33  1  0
 15 34  1  0
 15 35  1  0
 16 36  1  0
 17 37  1  0
 17 38  1  0
 17 39  1  0
 18 40  1  0
 18 41  1  0
 18 42  1  0
 19 43  1  0
 20 44  1  0
M  END
>  <energy_abs>  (8) 
45.06997500765187

>  <SMILES>  (8) 
COc1ccc(C2OC(=O)C(C)C2(C)CC(C)C)cc1

>  <cluster_no>  (8) 
8

>  <ccdc_id>  (8) 
33

>  <initial_conformation_id>  (8) 
271

>  <minimize_method>  (8) 
MMFF

$$$$
