%NProcShared=1
%Mem=10GB

#p B3LYP/6-31G* opt freq

test

0  1
C           5.30650         1.68200         3.24590
O           4.66460         2.23100         2.10230
C           3.42250         1.74730         1.79820
C           2.73360         0.75570         2.49350
C           1.46120         0.35170         2.06970
C           0.85560         0.92550         0.94110
C          -0.51940         0.46270         0.49840
O          -1.22930         1.54220        -0.12640
C          -2.13170         1.03280        -1.00920
O          -2.92820         1.70860        -1.64010
C          -2.02770        -0.47290        -1.05920
C          -3.19050        -1.03300        -0.24340
C          -0.59740        -0.70980        -0.51770
C           0.40900        -0.51490        -1.68020
C          -0.34990        -2.07460         0.18700
C          -0.09810        -3.32990        -0.68340
C          -1.27240        -3.73610        -1.56860
C           0.27250        -4.51010         0.22560
C           1.55490         1.92980         0.25740
C           2.82480         2.33140         0.68140
H           6.27710         2.17570         3.35370
H           5.49060         0.61010         3.11850
H           4.72980         1.87930         4.15560
H           3.15420         0.27690         3.37140
H           0.94460        -0.41820         2.63970
H          -1.08760         0.22200         1.40790
H          -2.11410        -0.78970        -2.10370
H          -3.20590        -2.12400        -0.25260
H          -4.14650        -0.69260        -0.65810
H          -3.16140        -0.70100         0.79970
H           1.43920        -0.68150        -1.34700
H           0.21140        -1.21310        -2.50040
H           0.35530         0.49120        -2.11010
H          -1.15780        -2.28230         0.89910
H           0.54810        -1.96300         0.80740
H           0.76850        -3.14700        -1.32940
H          -2.15930        -3.97200        -0.97310
H          -1.02180        -4.63150        -2.14860
H          -1.52850        -2.95580        -2.28770
H           0.50430        -5.40130        -0.36740
H          -0.54820        -4.75970         0.90680
H           1.15580        -4.27560         0.82920
H           1.11750         2.41650        -0.61230
H           3.35030         3.11180         0.13600

