%NProcShared=1
%Mem=10GB

#p B3LYP/6-31G* opt freq

test

0  1
C           5.21820         2.07840         3.13610
O           3.98090         2.68160         2.78010
C           3.15020         1.95800         1.97090
C           1.96160         2.60120         1.62730
C           1.01800         1.97590         0.80580
C           1.24110         0.68280         0.31270
C           0.23950        -0.04620        -0.57260
O          -0.55880         0.89690        -1.31280
C          -1.80380         0.98380        -0.76340
O          -2.67590         1.73460        -1.16740
C          -1.90090         0.06240         0.42420
C          -3.31660        -0.45040         0.64050
C          -0.79360        -0.97860         0.11750
C          -0.31610        -1.63500         1.42120
C          -1.30580        -2.07730        -0.88370
C          -0.47790        -3.37460        -1.06980
C          -1.25390        -4.33850        -1.97930
C           0.91580        -3.16260        -1.65160
C           2.44720         0.04950         0.65710
C           3.39110         0.67770         1.47960
H           5.83240         1.88400         2.25050
H           5.05860         1.16330         3.71580
H           5.76350         2.78350         3.77090
H           1.76800         3.60560         1.99740
H           0.11600         2.52880         0.55410
H           0.81540        -0.57990        -1.33160
H          -1.62150         0.65790         1.30370
H          -3.34190        -1.24710         1.38990
H          -3.95840         0.36260         0.99940
H          -3.77270        -0.81520        -0.28570
H           0.59250        -2.22570         1.27170
H          -1.08540        -2.30230         1.82560
H          -0.10050        -0.89360         2.19840
H          -2.28780        -2.41970        -0.53700
H          -1.48070        -1.62330        -1.86830
H          -0.37190        -3.87340        -0.09910
H          -1.39550        -3.91350        -2.97890
H          -0.71990        -5.28870        -2.08700
H          -2.24140        -4.56110        -1.56120
H           0.87630        -2.59470        -2.58680
H           1.56400        -2.63790        -0.94690
H           1.39840        -4.12290        -1.86550
H           2.66960        -0.94860         0.28620
H           4.30270         0.13810         1.71350

