
     RDKit          3D

 44 45  0  0  0  0  0  0  0  0999 V2000
    5.2182    2.0784    3.1361 C   0  0  0  0  0  0  0  0  0  0  0  0
    3.9809    2.6816    2.7801 O   0  0  0  0  0  0  0  0  0  0  0  0
    3.1502    1.9580    1.9709 C   0  0  0  0  0  0  0  0  0  0  0  0
    1.9616    2.6012    1.6273 C   0  0  0  0  0  0  0  0  0  0  0  0
    1.0180    1.9759    0.8058 C   0  0  0  0  0  0  0  0  0  0  0  0
    1.2411    0.6828    0.3127 C   0  0  0  0  0  0  0  0  0  0  0  0
    0.2395   -0.0462   -0.5726 C   0  0  0  0  0  0  0  0  0  0  0  0
   -0.5588    0.8969   -1.3128 O   0  0  0  0  0  0  0  0  0  0  0  0
   -1.8038    0.9838   -0.7634 C   0  0  0  0  0  0  0  0  0  0  0  0
   -2.6759    1.7346   -1.1674 O   0  0  0  0  0  0  0  0  0  0  0  0
   -1.9009    0.0624    0.4242 C   0  0  0  0  0  0  0  0  0  0  0  0
   -3.3166   -0.4504    0.6405 C   0  0  0  0  0  0  0  0  0  0  0  0
   -0.7936   -0.9786    0.1175 C   0  0  0  0  0  0  0  0  0  0  0  0
   -0.3161   -1.6350    1.4212 C   0  0  0  0  0  0  0  0  0  0  0  0
   -1.3058   -2.0773   -0.8837 C   0  0  0  0  0  0  0  0  0  0  0  0
   -0.4779   -3.3746   -1.0698 C   0  0  0  0  0  0  0  0  0  0  0  0
   -1.2539   -4.3385   -1.9793 C   0  0  0  0  0  0  0  0  0  0  0  0
    0.9158   -3.1626   -1.6516 C   0  0  0  0  0  0  0  0  0  0  0  0
    2.4472    0.0495    0.6571 C   0  0  0  0  0  0  0  0  0  0  0  0
    3.3911    0.6777    1.4796 C   0  0  0  0  0  0  0  0  0  0  0  0
    5.8324    1.8840    2.2505 H   0  0  0  0  0  0  0  0  0  0  0  0
    5.0586    1.1633    3.7158 H   0  0  0  0  0  0  0  0  0  0  0  0
    5.7635    2.7835    3.7709 H   0  0  0  0  0  0  0  0  0  0  0  0
    1.7680    3.6056    1.9974 H   0  0  0  0  0  0  0  0  0  0  0  0
    0.1160    2.5288    0.5541 H   0  0  0  0  0  0  0  0  0  0  0  0
    0.8154   -0.5799   -1.3316 H   0  0  0  0  0  0  0  0  0  0  0  0
   -1.6215    0.6579    1.3037 H   0  0  0  0  0  0  0  0  0  0  0  0
   -3.3419   -1.2471    1.3899 H   0  0  0  0  0  0  0  0  0  0  0  0
   -3.9584    0.3626    0.9994 H   0  0  0  0  0  0  0  0  0  0  0  0
   -3.7727   -0.8152   -0.2857 H   0  0  0  0  0  0  0  0  0  0  0  0
    0.5925   -2.2257    1.2717 H   0  0  0  0  0  0  0  0  0  0  0  0
   -1.0854   -2.3023    1.8256 H   0  0  0  0  0  0  0  0  0  0  0  0
   -0.1005   -0.8936    2.1984 H   0  0  0  0  0  0  0  0  0  0  0  0
   -2.2878   -2.4197   -0.5370 H   0  0  0  0  0  0  0  0  0  0  0  0
   -1.4807   -1.6233   -1.8683 H   0  0  0  0  0  0  0  0  0  0  0  0
   -0.3719   -3.8734   -0.0991 H   0  0  0  0  0  0  0  0  0  0  0  0
   -1.3955   -3.9135   -2.9789 H   0  0  0  0  0  0  0  0  0  0  0  0
   -0.7199   -5.2887   -2.0870 H   0  0  0  0  0  0  0  0  0  0  0  0
   -2.2414   -4.5611   -1.5612 H   0  0  0  0  0  0  0  0  0  0  0  0
    0.8763   -2.5947   -2.5868 H   0  0  0  0  0  0  0  0  0  0  0  0
    1.5640   -2.6379   -0.9469 H   0  0  0  0  0  0  0  0  0  0  0  0
    1.3984   -4.1229   -1.8655 H   0  0  0  0  0  0  0  0  0  0  0  0
    2.6696   -0.9486    0.2862 H   0  0  0  0  0  0  0  0  0  0  0  0
    4.3027    0.1381    1.7135 H   0  0  0  0  0  0  0  0  0  0  0  0
  1  2  1  0
  2  3  1  0
  3  4  2  0
  4  5  1  0
  5  6  2  0
  6  7  1  0
  7  8  1  0
  8  9  1  0
  9 10  2  0
  9 11  1  0
 11 12  1  0
 11 13  1  0
 13 14  1  0
 13 15  1  0
 15 16  1  0
 16 17  1  0
 16 18  1  0
  6 19  1  0
 19 20  2  0
 20  3  1  0
 13  7  1  0
  1 21  1  0
  1 22  1  0
  1 23  1  0
  4 24  1  0
  5 25  1  0
  7 26  1  0
 11 27  1  0
 12 28  1  0
 12 29  1  0
 12 30  1  0
 14 31  1  0
 14 32  1  0
 14 33  1  0
 15 34  1  0
 15 35  1  0
 16 36  1  0
 17 37  1  0
 17 38  1  0
 17 39  1  0
 18 40  1  0
 18 41  1  0
 18 42  1  0
 19 43  1  0
 20 44  1  0
M  END
>  <energy_abs>  (81) 
45.705664645885314

>  <SMILES>  (81) 
COc1ccc(C2OC(=O)C(C)C2(C)CC(C)C)cc1

>  <cluster_no>  (81) 
81

>  <ccdc_id>  (81) 
33

>  <initial_conformation_id>  (81) 
229

>  <minimize_method>  (81) 
MMFF

$$$$
