
     RDKit          3D

 44 45  0  0  0  0  0  0  0  0999 V2000
    5.7040    1.9571    2.4426 C   0  0  0  0  0  0  0  0  0  0  0  0
    4.3639    2.2147    2.8413 O   0  0  0  0  0  0  0  0  0  0  0  0
    3.3753    1.7979    1.9938 C   0  0  0  0  0  0  0  0  0  0  0  0
    3.5568    1.1283    0.7853 C   0  0  0  0  0  0  0  0  0  0  0  0
    2.4498    0.7558    0.0123 C   0  0  0  0  0  0  0  0  0  0  0  0
    1.1420    1.0413    0.4338 C   0  0  0  0  0  0  0  0  0  0  0  0
   -0.0400    0.6165   -0.4164 C   0  0  0  0  0  0  0  0  0  0  0  0
   -1.1485    1.4953   -0.2140 O   0  0  0  0  0  0  0  0  0  0  0  0
   -2.2873    0.8469   -0.5687 C   0  0  0  0  0  0  0  0  0  0  0  0
   -3.3721    1.3967   -0.6749 O   0  0  0  0  0  0  0  0  0  0  0  0
   -2.0137   -0.6219   -0.8133 C   0  0  0  0  0  0  0  0  0  0  0  0
   -3.1601   -1.4305   -0.2129 C   0  0  0  0  0  0  0  0  0  0  0  0
   -0.6051   -0.8255   -0.2107 C   0  0  0  0  0  0  0  0  0  0  0  0
   -0.6617   -1.1822    1.2906 C   0  0  0  0  0  0  0  0  0  0  0  0
    0.3170   -1.8138   -0.9932 C   0  0  0  0  0  0  0  0  0  0  0  0
   -0.0472   -3.2835   -1.2981 C   0  0  0  0  0  0  0  0  0  0  0  0
   -1.0863   -3.4482   -2.4059 C   0  0  0  0  0  0  0  0  0  0  0  0
   -0.3791   -4.1413   -0.0837 C   0  0  0  0  0  0  0  0  0  0  0  0
    0.9733    1.7227    1.6472 C   0  0  0  0  0  0  0  0  0  0  0  0
    2.0793    2.0930    2.4173 C   0  0  0  0  0  0  0  0  0  0  0  0
    6.3659    2.3560    3.2173 H   0  0  0  0  0  0  0  0  0  0  0  0
    5.8928    0.8812    2.3652 H   0  0  0  0  0  0  0  0  0  0  0  0
    5.9427    2.4695    1.5047 H   0  0  0  0  0  0  0  0  0  0  0  0
    4.5451    0.8817    0.4122 H   0  0  0  0  0  0  0  0  0  0  0  0
    2.6242    0.2412   -0.9305 H   0  0  0  0  0  0  0  0  0  0  0  0
    0.2509    0.7702   -1.4660 H   0  0  0  0  0  0  0  0  0  0  0  0
   -1.9828   -0.7562   -1.9011 H   0  0  0  0  0  0  0  0  0  0  0  0
   -3.3863   -1.1212    0.8138 H   0  0  0  0  0  0  0  0  0  0  0  0
   -2.9596   -2.5016   -0.2081 H   0  0  0  0  0  0  0  0  0  0  0  0
   -4.0760   -1.2727   -0.7944 H   0  0  0  0  0  0  0  0  0  0  0  0
    0.3421   -1.3115    1.7099 H   0  0  0  0  0  0  0  0  0  0  0  0
   -1.2033   -2.1105    1.4803 H   0  0  0  0  0  0  0  0  0  0  0  0
   -1.1667   -0.4020    1.8712 H   0  0  0  0  0  0  0  0  0  0  0  0
    0.5577   -1.3572   -1.9641 H   0  0  0  0  0  0  0  0  0  0  0  0
    1.2766   -1.8493   -0.4582 H   0  0  0  0  0  0  0  0  0  0  0  0
    0.8775   -3.7133   -1.7127 H   0  0  0  0  0  0  0  0  0  0  0  0
   -0.8281   -2.8397   -3.2789 H   0  0  0  0  0  0  0  0  0  0  0  0
   -2.0918   -3.1749   -2.0863 H   0  0  0  0  0  0  0  0  0  0  0  0
   -1.1265   -4.4927   -2.7350 H   0  0  0  0  0  0  0  0  0  0  0  0
    0.3512   -3.9889    0.7174 H   0  0  0  0  0  0  0  0  0  0  0  0
   -0.3521   -5.2034   -0.3528 H   0  0  0  0  0  0  0  0  0  0  0  0
   -1.3780   -3.9407    0.3069 H   0  0  0  0  0  0  0  0  0  0  0  0
   -0.0221    1.9762    2.0070 H   0  0  0  0  0  0  0  0  0  0  0  0
    1.9268    2.6207    3.3559 H   0  0  0  0  0  0  0  0  0  0  0  0
  1  2  1  0
  2  3  1  0
  3  4  2  0
  4  5  1  0
  5  6  2  0
  6  7  1  0
  7  8  1  0
  8  9  1  0
  9 10  2  0
  9 11  1  0
 11 12  1  0
 11 13  1  0
 13 14  1  0
 13 15  1  0
 15 16  1  0
 16 17  1  0
 16 18  1  0
  6 19  1  0
 19 20  2  0
 20  3  1  0
 13  7  1  0
  1 21  1  0
  1 22  1  0
  1 23  1  0
  4 24  1  0
  5 25  1  0
  7 26  1  0
 11 27  1  0
 12 28  1  0
 12 29  1  0
 12 30  1  0
 14 31  1  0
 14 32  1  0
 14 33  1  0
 15 34  1  0
 15 35  1  0
 16 36  1  0
 17 37  1  0
 17 38  1  0
 17 39  1  0
 18 40  1  0
 18 41  1  0
 18 42  1  0
 19 43  1  0
 20 44  1  0
M  END
>  <energy_abs>  (82) 
48.92048556348056

>  <SMILES>  (82) 
COc1ccc(C2OC(=O)C(C)C2(C)CC(C)C)cc1

>  <cluster_no>  (82) 
82

>  <ccdc_id>  (82) 
33

>  <initial_conformation_id>  (82) 
228

>  <minimize_method>  (82) 
MMFF

$$$$
