
     RDKit          3D

 44 45  0  0  0  0  0  0  0  0999 V2000
    4.7860    3.8831    1.9947 C   0  0  0  0  0  0  0  0  0  0  0  0
    4.6561    2.4812    2.1950 O   0  0  0  0  0  0  0  0  0  0  0  0
    3.4504    1.9212    1.8761 C   0  0  0  0  0  0  0  0  0  0  0  0
    2.3467    2.5894    1.3505 C   0  0  0  0  0  0  0  0  0  0  0  0
    1.1657    1.8909    1.0655 C   0  0  0  0  0  0  0  0  0  0  0  0
    1.0667    0.5109    1.2972 C   0  0  0  0  0  0  0  0  0  0  0  0
   -0.1900   -0.2898    0.9927 C   0  0  0  0  0  0  0  0  0  0  0  0
   -1.3568    0.5446    1.0937 O   0  0  0  0  0  0  0  0  0  0  0  0
   -1.8215    0.8447   -0.1529 C   0  0  0  0  0  0  0  0  0  0  0  0
   -2.7727    1.5788   -0.3640 O   0  0  0  0  0  0  0  0  0  0  0  0
   -0.9590    0.1824   -1.1984 C   0  0  0  0  0  0  0  0  0  0  0  0
   -1.7471   -0.1637   -2.4489 C   0  0  0  0  0  0  0  0  0  0  0  0
   -0.3122   -0.9725   -0.4044 C   0  0  0  0  0  0  0  0  0  0  0  0
    1.0368   -1.3696   -1.0160 C   0  0  0  0  0  0  0  0  0  0  0  0
   -1.2554   -2.2211   -0.2292 C   0  0  0  0  0  0  0  0  0  0  0  0
   -1.3502   -3.2510   -1.3823 C   0  0  0  0  0  0  0  0  0  0  0  0
   -2.7673   -3.8357   -1.4452 C   0  0  0  0  0  0  0  0  0  0  0  0
   -0.3588   -4.4072   -1.2060 C   0  0  0  0  0  0  0  0  0  0  0  0
    2.1830   -0.1478    1.8365 C   0  0  0  0  0  0  0  0  0  0  0  0
    3.3602    0.5507    2.1178 C   0  0  0  0  0  0  0  0  0  0  0  0
    4.0745    4.4385    2.6147 H   0  0  0  0  0  0  0  0  0  0  0  0
    4.6759    4.1421    0.9365 H   0  0  0  0  0  0  0  0  0  0  0  0
    5.7945    4.1729    2.3049 H   0  0  0  0  0  0  0  0  0  0  0  0
    2.3649    3.6562    1.1532 H   0  0  0  0  0  0  0  0  0  0  0  0
    0.3227    2.4542    0.6711 H   0  0  0  0  0  0  0  0  0  0  0  0
   -0.2884   -1.0325    1.7945 H   0  0  0  0  0  0  0  0  0  0  0  0
   -0.1940    0.9202   -1.4754 H   0  0  0  0  0  0  0  0  0  0  0  0
   -2.1170    0.7506   -2.9275 H   0  0  0  0  0  0  0  0  0  0  0  0
   -1.1207   -0.6814   -3.1807 H   0  0  0  0  0  0  0  0  0  0  0  0
   -2.6272   -0.7746   -2.2286 H   0  0  0  0  0  0  0  0  0  0  0  0
    0.9167   -1.7970   -2.0162 H   0  0  0  0  0  0  0  0  0  0  0  0
    1.7015   -0.5073   -1.1381 H   0  0  0  0  0  0  0  0  0  0  0  0
    1.5546   -2.1018   -0.3885 H   0  0  0  0  0  0  0  0  0  0  0  0
   -2.2632   -1.8526    0.0052 H   0  0  0  0  0  0  0  0  0  0  0  0
   -0.9413   -2.7699    0.6697 H   0  0  0  0  0  0  0  0  0  0  0  0
   -1.1503   -2.7755   -2.3456 H   0  0  0  0  0  0  0  0  0  0  0  0
   -2.8524   -4.5651   -2.2578 H   0  0  0  0  0  0  0  0  0  0  0  0
   -3.0317   -4.3386   -0.5085 H   0  0  0  0  0  0  0  0  0  0  0  0
   -3.5069   -3.0494   -1.6288 H   0  0  0  0  0  0  0  0  0  0  0  0
   -0.4562   -5.1257   -2.0274 H   0  0  0  0  0  0  0  0  0  0  0  0
    0.6771   -4.0620   -1.1999 H   0  0  0  0  0  0  0  0  0  0  0  0
   -0.5391   -4.9462   -0.2694 H   0  0  0  0  0  0  0  0  0  0  0  0
    2.1486   -1.2157    2.0432 H   0  0  0  0  0  0  0  0  0  0  0  0
    4.2146    0.0214    2.5330 H   0  0  0  0  0  0  0  0  0  0  0  0
  1  2  1  0
  2  3  1  0
  3  4  2  0
  4  5  1  0
  5  6  2  0
  6  7  1  0
  7  8  1  0
  8  9  1  0
  9 10  2  0
  9 11  1  0
 11 12  1  0
 11 13  1  0
 13 14  1  0
 13 15  1  0
 15 16  1  0
 16 17  1  0
 16 18  1  0
  6 19  1  0
 19 20  2  0
 20  3  1  0
 13  7  1  0
  1 21  1  0
  1 22  1  0
  1 23  1  0
  4 24  1  0
  5 25  1  0
  7 26  1  0
 11 27  1  0
 12 28  1  0
 12 29  1  0
 12 30  1  0
 14 31  1  0
 14 32  1  0
 14 33  1  0
 15 34  1  0
 15 35  1  0
 16 36  1  0
 17 37  1  0
 17 38  1  0
 17 39  1  0
 18 40  1  0
 18 41  1  0
 18 42  1  0
 19 43  1  0
 20 44  1  0
M  END
>  <energy_abs>  (85) 
47.25849814135882

>  <SMILES>  (85) 
COc1ccc(C2OC(=O)C(C)C2(C)CC(C)C)cc1

>  <cluster_no>  (85) 
85

>  <ccdc_id>  (85) 
33

>  <initial_conformation_id>  (85) 
224

>  <minimize_method>  (85) 
MMFF

$$$$
