#Put Keywords Here, check Charge and Multiplicity.

 

0  1
C           5.52360         2.68700         2.16910
O           4.24270         3.18230         1.80110
C           3.24640         2.26070         1.63810
C           3.37070         0.88130         1.78390
C           2.26170         0.04980         1.58420
C           1.00890         0.57680         1.22520
C          -0.16430        -0.36810         1.01870
O          -1.40470         0.31640         1.23970
C          -2.04290         0.52780         0.06020
O          -3.05750         1.19820        -0.05000
C          -1.33060        -0.15940        -1.07480
C          -0.75580         0.87960        -2.02940
C          -0.32560        -1.08640        -0.35740
C           0.99990        -1.29120        -1.10670
C          -0.99010        -2.48760        -0.07220
C          -0.98830        -3.56630        -1.18430
C          -1.75380        -3.17760        -2.44650
C          -1.57900        -4.86760        -0.62370
C           0.89510         1.96750         1.09910
C           2.00400         2.79610         1.29840
H           6.19850         3.54310         2.26440
H           5.92930         2.02790         1.39440
H           5.48780         2.18160         3.13990
H           4.31340         0.41800         2.05510
H           2.38750        -1.02380         1.71370
H          -0.09690        -1.10590         1.82840
H          -2.09010        -0.73590        -1.60770
H          -1.54680         1.54190        -2.39930
H          -0.00630         1.51580        -1.55220
H          -0.29710         0.40060        -2.90010
H           1.65210        -1.98690        -0.56740
H           0.83760        -1.69950        -2.10910
H           1.55370        -0.35740        -1.24490
H          -0.45590        -2.93640         0.77770
H          -2.02110        -2.33750         0.27700
H           0.04800        -3.78690        -1.46630
H          -2.78980        -2.90770        -2.21640
H          -1.27930        -2.33880        -2.96250
H          -1.77820        -4.01190        -3.15650
H          -2.62380        -4.73250        -0.32360
H          -1.01510        -5.20730         0.25150
H          -1.54150        -5.66700        -1.37150
H          -0.05620         2.43490         0.85420
H           1.89350         3.87310         1.19370

