
     RDKit          3D

 44 45  0  0  0  0  0  0  0  0999 V2000
    5.5236    2.6870    2.1691 C   0  0  0  0  0  0  0  0  0  0  0  0
    4.2427    3.1823    1.8011 O   0  0  0  0  0  0  0  0  0  0  0  0
    3.2464    2.2607    1.6381 C   0  0  0  0  0  0  0  0  0  0  0  0
    3.3707    0.8813    1.7839 C   0  0  0  0  0  0  0  0  0  0  0  0
    2.2617    0.0498    1.5842 C   0  0  0  0  0  0  0  0  0  0  0  0
    1.0089    0.5768    1.2252 C   0  0  0  0  0  0  0  0  0  0  0  0
   -0.1643   -0.3681    1.0187 C   0  0  0  0  0  0  0  0  0  0  0  0
   -1.4047    0.3164    1.2397 O   0  0  0  0  0  0  0  0  0  0  0  0
   -2.0429    0.5278    0.0602 C   0  0  0  0  0  0  0  0  0  0  0  0
   -3.0575    1.1982   -0.0500 O   0  0  0  0  0  0  0  0  0  0  0  0
   -1.3306   -0.1594   -1.0748 C   0  0  0  0  0  0  0  0  0  0  0  0
   -0.7558    0.8796   -2.0294 C   0  0  0  0  0  0  0  0  0  0  0  0
   -0.3256   -1.0864   -0.3574 C   0  0  0  0  0  0  0  0  0  0  0  0
    0.9999   -1.2912   -1.1067 C   0  0  0  0  0  0  0  0  0  0  0  0
   -0.9901   -2.4876   -0.0722 C   0  0  0  0  0  0  0  0  0  0  0  0
   -0.9883   -3.5663   -1.1843 C   0  0  0  0  0  0  0  0  0  0  0  0
   -1.7538   -3.1776   -2.4465 C   0  0  0  0  0  0  0  0  0  0  0  0
   -1.5790   -4.8676   -0.6237 C   0  0  0  0  0  0  0  0  0  0  0  0
    0.8951    1.9675    1.0991 C   0  0  0  0  0  0  0  0  0  0  0  0
    2.0040    2.7961    1.2984 C   0  0  0  0  0  0  0  0  0  0  0  0
    6.1985    3.5431    2.2644 H   0  0  0  0  0  0  0  0  0  0  0  0
    5.9293    2.0279    1.3944 H   0  0  0  0  0  0  0  0  0  0  0  0
    5.4878    2.1816    3.1399 H   0  0  0  0  0  0  0  0  0  0  0  0
    4.3134    0.4180    2.0551 H   0  0  0  0  0  0  0  0  0  0  0  0
    2.3875   -1.0238    1.7137 H   0  0  0  0  0  0  0  0  0  0  0  0
   -0.0969   -1.1059    1.8284 H   0  0  0  0  0  0  0  0  0  0  0  0
   -2.0901   -0.7359   -1.6077 H   0  0  0  0  0  0  0  0  0  0  0  0
   -1.5468    1.5419   -2.3993 H   0  0  0  0  0  0  0  0  0  0  0  0
   -0.0063    1.5158   -1.5522 H   0  0  0  0  0  0  0  0  0  0  0  0
   -0.2971    0.4006   -2.9001 H   0  0  0  0  0  0  0  0  0  0  0  0
    1.6521   -1.9869   -0.5674 H   0  0  0  0  0  0  0  0  0  0  0  0
    0.8376   -1.6995   -2.1091 H   0  0  0  0  0  0  0  0  0  0  0  0
    1.5537   -0.3574   -1.2449 H   0  0  0  0  0  0  0  0  0  0  0  0
   -0.4559   -2.9364    0.7777 H   0  0  0  0  0  0  0  0  0  0  0  0
   -2.0211   -2.3375    0.2770 H   0  0  0  0  0  0  0  0  0  0  0  0
    0.0480   -3.7869   -1.4663 H   0  0  0  0  0  0  0  0  0  0  0  0
   -2.7898   -2.9077   -2.2164 H   0  0  0  0  0  0  0  0  0  0  0  0
   -1.2793   -2.3388   -2.9625 H   0  0  0  0  0  0  0  0  0  0  0  0
   -1.7782   -4.0119   -3.1565 H   0  0  0  0  0  0  0  0  0  0  0  0
   -2.6238   -4.7325   -0.3236 H   0  0  0  0  0  0  0  0  0  0  0  0
   -1.0151   -5.2073    0.2515 H   0  0  0  0  0  0  0  0  0  0  0  0
   -1.5415   -5.6670   -1.3715 H   0  0  0  0  0  0  0  0  0  0  0  0
   -0.0562    2.4349    0.8542 H   0  0  0  0  0  0  0  0  0  0  0  0
    1.8935    3.8731    1.1937 H   0  0  0  0  0  0  0  0  0  0  0  0
  1  2  1  0
  2  3  1  0
  3  4  2  0
  4  5  1  0
  5  6  2  0
  6  7  1  0
  7  8  1  0
  8  9  1  0
  9 10  2  0
  9 11  1  0
 11 12  1  0
 11 13  1  0
 13 14  1  0
 13 15  1  0
 15 16  1  0
 16 17  1  0
 16 18  1  0
  6 19  1  0
 19 20  2  0
 20  3  1  0
 13  7  1  0
  1 21  1  0
  1 22  1  0
  1 23  1  0
  4 24  1  0
  5 25  1  0
  7 26  1  0
 11 27  1  0
 12 28  1  0
 12 29  1  0
 12 30  1  0
 14 31  1  0
 14 32  1  0
 14 33  1  0
 15 34  1  0
 15 35  1  0
 16 36  1  0
 17 37  1  0
 17 38  1  0
 17 39  1  0
 18 40  1  0
 18 41  1  0
 18 42  1  0
 19 43  1  0
 20 44  1  0
M  END
>  <energy_abs>  (86) 
46.82563096896318

>  <SMILES>  (86) 
COc1ccc(C2OC(=O)C(C)C2(C)CC(C)C)cc1

>  <cluster_no>  (86) 
86

>  <ccdc_id>  (86) 
33

>  <initial_conformation_id>  (86) 
223

>  <minimize_method>  (86) 
MMFF

$$$$
