#Put Keywords Here, check Charge and Multiplicity.

 

0  1
C           5.11740         3.02580         1.27480
O           4.69100         1.75820         1.75820
C           3.37270         1.44240         1.58200
C           2.41160         2.23890         0.96430
C           1.08910         1.79040         0.84830
C           0.70210         0.53330         1.33630
C          -0.72250         0.01340         1.23420
O          -1.64420         1.10560         1.08100
C          -2.13690         1.13830        -0.18700
O          -2.86370         2.02450        -0.60810
C          -1.64620        -0.03880        -0.99120
C          -0.67740         0.45330        -2.05940
C          -1.09560        -0.98170         0.09920
C          -2.27760        -1.84070         0.62740
C           0.06840        -1.91090        -0.34550
C          -0.25550        -2.94870        -1.44970
C          -0.59080        -4.32600        -0.86550
C           0.94520        -3.10860        -2.39160
C           1.67710        -0.24860         1.97560
C           2.99620         0.19930         2.08910
H           6.18470         3.12550         1.49470
H           4.59450         3.84020         1.78710
H           4.99330         3.09640         0.18910
H           2.65110         3.21910         0.56540
H           0.36560         2.45200         0.37540
H          -0.95500        -0.43220         2.21090
H          -2.51360        -0.49150        -1.48670
H          -1.13510         1.24820        -2.65940
H          -0.40670        -0.35180        -2.74690
H           0.24260         0.86270        -1.63690
H          -2.74000        -2.42690        -0.17310
H          -3.07180        -1.22180         1.06150
H          -1.94020        -2.52950         1.41000
H           0.89820        -1.28320        -0.69240
H           0.45110        -2.44630         0.53290
H          -1.10620        -2.60820        -2.05040
H          -0.81590        -5.03880        -1.66650
H          -1.46060        -4.29430        -0.20630
H           0.25030        -4.72730        -0.28920
H           0.72600        -3.83440        -3.18210
H           1.19480        -2.15920        -2.87580
H           1.83190        -3.45480        -1.84920
H           1.42010        -1.21810         2.39750
H           3.73660        -0.42540         2.58330

