
     RDKit          3D

 44 45  0  0  0  0  0  0  0  0999 V2000
    5.1174    3.0258    1.2748 C   0  0  0  0  0  0  0  0  0  0  0  0
    4.6910    1.7582    1.7582 O   0  0  0  0  0  0  0  0  0  0  0  0
    3.3727    1.4424    1.5820 C   0  0  0  0  0  0  0  0  0  0  0  0
    2.4116    2.2389    0.9643 C   0  0  0  0  0  0  0  0  0  0  0  0
    1.0891    1.7904    0.8483 C   0  0  0  0  0  0  0  0  0  0  0  0
    0.7021    0.5333    1.3363 C   0  0  0  0  0  0  0  0  0  0  0  0
   -0.7225    0.0134    1.2342 C   0  0  0  0  0  0  0  0  0  0  0  0
   -1.6442    1.1056    1.0810 O   0  0  0  0  0  0  0  0  0  0  0  0
   -2.1369    1.1383   -0.1870 C   0  0  0  0  0  0  0  0  0  0  0  0
   -2.8637    2.0245   -0.6081 O   0  0  0  0  0  0  0  0  0  0  0  0
   -1.6462   -0.0388   -0.9912 C   0  0  0  0  0  0  0  0  0  0  0  0
   -0.6774    0.4533   -2.0594 C   0  0  0  0  0  0  0  0  0  0  0  0
   -1.0956   -0.9817    0.0992 C   0  0  0  0  0  0  0  0  0  0  0  0
   -2.2776   -1.8407    0.6274 C   0  0  0  0  0  0  0  0  0  0  0  0
    0.0684   -1.9109   -0.3455 C   0  0  0  0  0  0  0  0  0  0  0  0
   -0.2555   -2.9487   -1.4497 C   0  0  0  0  0  0  0  0  0  0  0  0
   -0.5908   -4.3260   -0.8655 C   0  0  0  0  0  0  0  0  0  0  0  0
    0.9452   -3.1086   -2.3916 C   0  0  0  0  0  0  0  0  0  0  0  0
    1.6771   -0.2486    1.9756 C   0  0  0  0  0  0  0  0  0  0  0  0
    2.9962    0.1993    2.0891 C   0  0  0  0  0  0  0  0  0  0  0  0
    6.1847    3.1255    1.4947 H   0  0  0  0  0  0  0  0  0  0  0  0
    4.5945    3.8402    1.7871 H   0  0  0  0  0  0  0  0  0  0  0  0
    4.9933    3.0964    0.1891 H   0  0  0  0  0  0  0  0  0  0  0  0
    2.6511    3.2191    0.5654 H   0  0  0  0  0  0  0  0  0  0  0  0
    0.3656    2.4520    0.3754 H   0  0  0  0  0  0  0  0  0  0  0  0
   -0.9550   -0.4322    2.2109 H   0  0  0  0  0  0  0  0  0  0  0  0
   -2.5136   -0.4915   -1.4867 H   0  0  0  0  0  0  0  0  0  0  0  0
   -1.1351    1.2482   -2.6594 H   0  0  0  0  0  0  0  0  0  0  0  0
   -0.4067   -0.3518   -2.7469 H   0  0  0  0  0  0  0  0  0  0  0  0
    0.2426    0.8627   -1.6369 H   0  0  0  0  0  0  0  0  0  0  0  0
   -2.7400   -2.4269   -0.1731 H   0  0  0  0  0  0  0  0  0  0  0  0
   -3.0718   -1.2218    1.0615 H   0  0  0  0  0  0  0  0  0  0  0  0
   -1.9402   -2.5295    1.4100 H   0  0  0  0  0  0  0  0  0  0  0  0
    0.8982   -1.2832   -0.6924 H   0  0  0  0  0  0  0  0  0  0  0  0
    0.4511   -2.4463    0.5329 H   0  0  0  0  0  0  0  0  0  0  0  0
   -1.1062   -2.6082   -2.0504 H   0  0  0  0  0  0  0  0  0  0  0  0
   -0.8159   -5.0388   -1.6665 H   0  0  0  0  0  0  0  0  0  0  0  0
   -1.4606   -4.2943   -0.2063 H   0  0  0  0  0  0  0  0  0  0  0  0
    0.2503   -4.7273   -0.2892 H   0  0  0  0  0  0  0  0  0  0  0  0
    0.7260   -3.8344   -3.1821 H   0  0  0  0  0  0  0  0  0  0  0  0
    1.1948   -2.1592   -2.8758 H   0  0  0  0  0  0  0  0  0  0  0  0
    1.8319   -3.4548   -1.8492 H   0  0  0  0  0  0  0  0  0  0  0  0
    1.4201   -1.2181    2.3975 H   0  0  0  0  0  0  0  0  0  0  0  0
    3.7366   -0.4254    2.5833 H   0  0  0  0  0  0  0  0  0  0  0  0
  1  2  1  0
  2  3  1  0
  3  4  2  0
  4  5  1  0
  5  6  2  0
  6  7  1  0
  7  8  1  0
  8  9  1  0
  9 10  2  0
  9 11  1  0
 11 12  1  0
 11 13  1  0
 13 14  1  0
 13 15  1  0
 15 16  1  0
 16 17  1  0
 16 18  1  0
  6 19  1  0
 19 20  2  0
 20  3  1  0
 13  7  1  0
  1 21  1  0
  1 22  1  0
  1 23  1  0
  4 24  1  0
  5 25  1  0
  7 26  1  0
 11 27  1  0
 12 28  1  0
 12 29  1  0
 12 30  1  0
 14 31  1  0
 14 32  1  0
 14 33  1  0
 15 34  1  0
 15 35  1  0
 16 36  1  0
 17 37  1  0
 17 38  1  0
 17 39  1  0
 18 40  1  0
 18 41  1  0
 18 42  1  0
 19 43  1  0
 20 44  1  0
M  END
>  <energy_abs>  (88) 
46.391283982065524

>  <SMILES>  (88) 
COc1ccc(C2OC(=O)C(C)C2(C)CC(C)C)cc1

>  <cluster_no>  (88) 
88

>  <ccdc_id>  (88) 
33

>  <initial_conformation_id>  (88) 
221

>  <minimize_method>  (88) 
MMFF

$$$$
