%NProcShared=1
%Mem=10GB

#p B3LYP/6-31G* opt freq

test

0  1
C           4.61600         2.50180         3.78180
O           3.92670         1.25840         3.81630
C           2.85180         1.12580         2.98180
C           2.38120         2.08580         2.08860
C           1.26440         1.81640         1.28770
C           0.59940         0.58300         1.36210
C          -0.60460         0.26810         0.49620
O          -1.27640         1.46760         0.09620
C          -1.98200         1.21740        -1.03960
O          -2.76380         2.01050        -1.53870
C          -1.66680        -0.16630        -1.56360
C          -1.63510        -0.14750        -3.08700
C          -0.35480        -0.51770        -0.82600
C           0.89220         0.02510        -1.55620
C          -0.21060        -2.03350        -0.49340
C          -0.38900        -3.08990        -1.60630
C          -0.52400        -4.47680        -0.95750
C           0.76450        -3.13560        -2.60720
C           1.07800        -0.37190         2.26990
C           2.19350        -0.10150         3.06740
H           5.05480         2.68240         2.79500
H           5.43510         2.45000         4.50560
H           3.95970         3.32590         4.08040
H           2.85520         3.05640         1.98820
H           0.91710         2.58800         0.60230
H          -1.32750        -0.26150         1.13390
H          -2.47700        -0.82370        -1.22220
H          -1.30400        -1.09960        -3.50500
H          -2.63880         0.04930        -3.48160
H          -0.98780         0.64650        -3.47480
H           0.86520         1.11720        -1.64340
H           1.81300        -0.24350        -1.02680
H           0.98730        -0.36080        -2.57150
H          -0.95830        -2.26850         0.27760
H           0.76210        -2.20110        -0.01190
H          -1.32340        -2.90390        -2.14560
H          -0.69050        -5.24880        -1.71660
H          -1.37520        -4.50530        -0.26880
H           0.37800        -4.74180        -0.39520
H           1.73460        -3.14920        -2.09950
H           0.74140        -2.28460        -3.28910
H           0.70260        -4.03200        -3.23460
H           0.58650        -1.33670         2.37230
H           2.55140        -0.85430         3.76580

