
     RDKit          3D

 44 45  0  0  0  0  0  0  0  0999 V2000
    4.6160    2.5018    3.7818 C   0  0  0  0  0  0  0  0  0  0  0  0
    3.9267    1.2584    3.8163 O   0  0  0  0  0  0  0  0  0  0  0  0
    2.8518    1.1258    2.9818 C   0  0  0  0  0  0  0  0  0  0  0  0
    2.3812    2.0858    2.0886 C   0  0  0  0  0  0  0  0  0  0  0  0
    1.2644    1.8164    1.2877 C   0  0  0  0  0  0  0  0  0  0  0  0
    0.5994    0.5830    1.3621 C   0  0  0  0  0  0  0  0  0  0  0  0
   -0.6046    0.2681    0.4962 C   0  0  0  0  0  0  0  0  0  0  0  0
   -1.2764    1.4676    0.0962 O   0  0  0  0  0  0  0  0  0  0  0  0
   -1.9820    1.2174   -1.0396 C   0  0  0  0  0  0  0  0  0  0  0  0
   -2.7638    2.0105   -1.5387 O   0  0  0  0  0  0  0  0  0  0  0  0
   -1.6668   -0.1663   -1.5636 C   0  0  0  0  0  0  0  0  0  0  0  0
   -1.6351   -0.1475   -3.0870 C   0  0  0  0  0  0  0  0  0  0  0  0
   -0.3548   -0.5177   -0.8260 C   0  0  0  0  0  0  0  0  0  0  0  0
    0.8922    0.0251   -1.5562 C   0  0  0  0  0  0  0  0  0  0  0  0
   -0.2106   -2.0335   -0.4934 C   0  0  0  0  0  0  0  0  0  0  0  0
   -0.3890   -3.0899   -1.6063 C   0  0  0  0  0  0  0  0  0  0  0  0
   -0.5240   -4.4768   -0.9575 C   0  0  0  0  0  0  0  0  0  0  0  0
    0.7645   -3.1356   -2.6072 C   0  0  0  0  0  0  0  0  0  0  0  0
    1.0780   -0.3719    2.2699 C   0  0  0  0  0  0  0  0  0  0  0  0
    2.1935   -0.1015    3.0674 C   0  0  0  0  0  0  0  0  0  0  0  0
    5.0548    2.6824    2.7950 H   0  0  0  0  0  0  0  0  0  0  0  0
    5.4351    2.4500    4.5056 H   0  0  0  0  0  0  0  0  0  0  0  0
    3.9597    3.3259    4.0804 H   0  0  0  0  0  0  0  0  0  0  0  0
    2.8552    3.0564    1.9882 H   0  0  0  0  0  0  0  0  0  0  0  0
    0.9171    2.5880    0.6023 H   0  0  0  0  0  0  0  0  0  0  0  0
   -1.3275   -0.2615    1.1339 H   0  0  0  0  0  0  0  0  0  0  0  0
   -2.4770   -0.8237   -1.2222 H   0  0  0  0  0  0  0  0  0  0  0  0
   -1.3040   -1.0996   -3.5050 H   0  0  0  0  0  0  0  0  0  0  0  0
   -2.6388    0.0493   -3.4816 H   0  0  0  0  0  0  0  0  0  0  0  0
   -0.9878    0.6465   -3.4748 H   0  0  0  0  0  0  0  0  0  0  0  0
    0.8652    1.1172   -1.6434 H   0  0  0  0  0  0  0  0  0  0  0  0
    1.8130   -0.2435   -1.0268 H   0  0  0  0  0  0  0  0  0  0  0  0
    0.9873   -0.3608   -2.5715 H   0  0  0  0  0  0  0  0  0  0  0  0
   -0.9583   -2.2685    0.2776 H   0  0  0  0  0  0  0  0  0  0  0  0
    0.7621   -2.2011   -0.0119 H   0  0  0  0  0  0  0  0  0  0  0  0
   -1.3234   -2.9039   -2.1456 H   0  0  0  0  0  0  0  0  0  0  0  0
   -0.6905   -5.2488   -1.7166 H   0  0  0  0  0  0  0  0  0  0  0  0
   -1.3752   -4.5053   -0.2688 H   0  0  0  0  0  0  0  0  0  0  0  0
    0.3780   -4.7418   -0.3952 H   0  0  0  0  0  0  0  0  0  0  0  0
    1.7346   -3.1492   -2.0995 H   0  0  0  0  0  0  0  0  0  0  0  0
    0.7414   -2.2846   -3.2891 H   0  0  0  0  0  0  0  0  0  0  0  0
    0.7026   -4.0320   -3.2346 H   0  0  0  0  0  0  0  0  0  0  0  0
    0.5865   -1.3367    2.3723 H   0  0  0  0  0  0  0  0  0  0  0  0
    2.5514   -0.8543    3.7658 H   0  0  0  0  0  0  0  0  0  0  0  0
  1  2  1  0
  2  3  1  0
  3  4  2  0
  4  5  1  0
  5  6  2  0
  6  7  1  0
  7  8  1  0
  8  9  1  0
  9 10  2  0
  9 11  1  0
 11 12  1  0
 11 13  1  0
 13 14  1  0
 13 15  1  0
 15 16  1  0
 16 17  1  0
 16 18  1  0
  6 19  1  0
 19 20  2  0
 20  3  1  0
 13  7  1  0
  1 21  1  0
  1 22  1  0
  1 23  1  0
  4 24  1  0
  5 25  1  0
  7 26  1  0
 11 27  1  0
 12 28  1  0
 12 29  1  0
 12 30  1  0
 14 31  1  0
 14 32  1  0
 14 33  1  0
 15 34  1  0
 15 35  1  0
 16 36  1  0
 17 37  1  0
 17 38  1  0
 17 39  1  0
 18 40  1  0
 18 41  1  0
 18 42  1  0
 19 43  1  0
 20 44  1  0
M  END
>  <energy_abs>  (9) 
44.57370292462094

>  <SMILES>  (9) 
COc1ccc(C2OC(=O)C(C)C2(C)CC(C)C)cc1

>  <cluster_no>  (9) 
9

>  <ccdc_id>  (9) 
33

>  <initial_conformation_id>  (9) 
270

>  <minimize_method>  (9) 
MMFF

$$$$
