
     RDKit          3D

 44 45  0  0  0  0  0  0  0  0999 V2000
    5.8003    1.2049    1.8119 C   0  0  0  0  0  0  0  0  0  0  0  0
    4.7576    1.9866    1.2436 O   0  0  0  0  0  0  0  0  0  0  0  0
    3.5084    1.4312    1.2245 C   0  0  0  0  0  0  0  0  0  0  0  0
    2.5153    2.2444    0.6780 C   0  0  0  0  0  0  0  0  0  0  0  0
    1.1929    1.8002    0.5942 C   0  0  0  0  0  0  0  0  0  0  0  0
    0.8365    0.5230    1.0482 C   0  0  0  0  0  0  0  0  0  0  0  0
   -0.5856    0.0135    0.9677 C   0  0  0  0  0  0  0  0  0  0  0  0
   -1.4977    1.0852    1.2595 O   0  0  0  0  0  0  0  0  0  0  0  0
   -2.7097    0.7998    0.7067 C   0  0  0  0  0  0  0  0  0  0  0  0
   -3.7099    1.4796    0.8648 O   0  0  0  0  0  0  0  0  0  0  0  0
   -2.6200   -0.4803   -0.0867 C   0  0  0  0  0  0  0  0  0  0  0  0
   -3.5402   -0.4671   -1.2989 C   0  0  0  0  0  0  0  0  0  0  0  0
   -1.0971   -0.5918   -0.3657 C   0  0  0  0  0  0  0  0  0  0  0  0
   -0.7022    0.2452   -1.5986 C   0  0  0  0  0  0  0  0  0  0  0  0
   -0.7156   -2.0928   -0.5318 C   0  0  0  0  0  0  0  0  0  0  0  0
    0.7164   -2.4193   -1.0137 C   0  0  0  0  0  0  0  0  0  0  0  0
    1.2359   -3.6775   -0.3087 C   0  0  0  0  0  0  0  0  0  0  0  0
    0.7711   -2.6496   -2.5278 C   0  0  0  0  0  0  0  0  0  0  0  0
    1.8396   -0.2812    1.6109 C   0  0  0  0  0  0  0  0  0  0  0  0
    3.1644    0.1655    1.6944 C   0  0  0  0  0  0  0  0  0  0  0  0
    5.9562    0.2819    1.2436 H   0  0  0  0  0  0  0  0  0  0  0  0
    5.6035    0.9913    2.8678 H   0  0  0  0  0  0  0  0  0  0  0  0
    6.7240    1.7891    1.7572 H   0  0  0  0  0  0  0  0  0  0  0  0
    2.7712    3.2383    0.3184 H   0  0  0  0  0  0  0  0  0  0  0  0
    0.4425    2.4684    0.1763 H   0  0  0  0  0  0  0  0  0  0  0  0
   -0.7214   -0.7085    1.7862 H   0  0  0  0  0  0  0  0  0  0  0  0
   -2.9384   -1.2859    0.5891 H   0  0  0  0  0  0  0  0  0  0  0  0
   -3.3736   -1.3410   -1.9355 H   0  0  0  0  0  0  0  0  0  0  0  0
   -4.5877   -0.4849   -0.9771 H   0  0  0  0  0  0  0  0  0  0  0  0
   -3.4150    0.4375   -1.9031 H   0  0  0  0  0  0  0  0  0  0  0  0
   -1.0490    1.2813   -1.5167 H   0  0  0  0  0  0  0  0  0  0  0  0
   -1.1360   -0.1697   -2.5146 H   0  0  0  0  0  0  0  0  0  0  0  0
    0.3817    0.2782   -1.7437 H   0  0  0  0  0  0  0  0  0  0  0  0
   -1.4277   -2.5647   -1.2219 H   0  0  0  0  0  0  0  0  0  0  0  0
   -0.8904   -2.5867    0.4341 H   0  0  0  0  0  0  0  0  0  0  0  0
    1.3995   -1.6017   -0.7721 H   0  0  0  0  0  0  0  0  0  0  0  0
    0.6002   -4.5439   -0.5217 H   0  0  0  0  0  0  0  0  0  0  0  0
    2.2540   -3.9150   -0.6353 H   0  0  0  0  0  0  0  0  0  0  0  0
    1.2618   -3.5342    0.7766 H   0  0  0  0  0  0  0  0  0  0  0  0
    0.4505   -1.7670   -3.0859 H   0  0  0  0  0  0  0  0  0  0  0  0
    1.7937   -2.8818   -2.8451 H   0  0  0  0  0  0  0  0  0  0  0  0
    0.1310   -3.4872   -2.8260 H   0  0  0  0  0  0  0  0  0  0  0  0
    1.6000   -1.2715    1.9927 H   0  0  0  0  0  0  0  0  0  0  0  0
    3.8997   -0.4999    2.1342 H   0  0  0  0  0  0  0  0  0  0  0  0
  1  2  1  0
  2  3  1  0
  3  4  2  0
  4  5  1  0
  5  6  2  0
  6  7  1  0
  7  8  1  0
  8  9  1  0
  9 10  2  0
  9 11  1  0
 11 12  1  0
 11 13  1  0
 13 14  1  0
 13 15  1  0
 15 16  1  0
 16 17  1  0
 16 18  1  0
  6 19  1  0
 19 20  2  0
 20  3  1  0
 13  7  1  0
  1 21  1  0
  1 22  1  0
  1 23  1  0
  4 24  1  0
  5 25  1  0
  7 26  1  0
 11 27  1  0
 12 28  1  0
 12 29  1  0
 12 30  1  0
 14 31  1  0
 14 32  1  0
 14 33  1  0
 15 34  1  0
 15 35  1  0
 16 36  1  0
 17 37  1  0
 17 38  1  0
 17 39  1  0
 18 40  1  0
 18 41  1  0
 18 42  1  0
 19 43  1  0
 20 44  1  0
M  END
>  <energy_abs>  (90) 
45.04555606962448

>  <SMILES>  (90) 
COc1ccc(C2OC(=O)C(C)C2(C)CC(C)C)cc1

>  <cluster_no>  (90) 
90

>  <ccdc_id>  (90) 
33

>  <initial_conformation_id>  (90) 
218

>  <minimize_method>  (90) 
MMFF

$$$$
