
     RDKit          3D

 44 45  0  0  0  0  0  0  0  0999 V2000
    4.5771    3.0404    3.5309 C   0  0  0  0  0  0  0  0  0  0  0  0
    4.7161    2.2094    2.3853 O   0  0  0  0  0  0  0  0  0  0  0  0
    3.5646    1.8372    1.7494 C   0  0  0  0  0  0  0  0  0  0  0  0
    2.2681    2.1742    2.1320 C   0  0  0  0  0  0  0  0  0  0  0  0
    1.1701    1.7220    1.3880 C   0  0  0  0  0  0  0  0  0  0  0  0
    1.3469    0.9216    0.2497 C   0  0  0  0  0  0  0  0  0  0  0  0
    0.1851    0.3989   -0.5813 C   0  0  0  0  0  0  0  0  0  0  0  0
   -0.9395    1.2906   -0.4935 O   0  0  0  0  0  0  0  0  0  0  0  0
   -1.8970    0.7513    0.3141 C   0  0  0  0  0  0  0  0  0  0  0  0
   -2.9378    1.3176    0.6044 O   0  0  0  0  0  0  0  0  0  0  0  0
   -1.4474   -0.5978    0.8175 C   0  0  0  0  0  0  0  0  0  0  0  0
   -2.6186   -1.5330    1.0595 C   0  0  0  0  0  0  0  0  0  0  0  0
   -0.3972   -1.0066   -0.2373 C   0  0  0  0  0  0  0  0  0  0  0  0
    0.6339   -1.9710    0.3613 C   0  0  0  0  0  0  0  0  0  0  0  0
   -1.0262   -1.5841   -1.5604 C   0  0  0  0  0  0  0  0  0  0  0  0
   -1.4426   -3.0756   -1.5984 C   0  0  0  0  0  0  0  0  0  0  0  0
   -2.6807   -3.2497   -2.4875 C   0  0  0  0  0  0  0  0  0  0  0  0
   -0.3258   -3.9724   -2.1456 C   0  0  0  0  0  0  0  0  0  0  0  0
    2.6591    0.5980   -0.1303 C   0  0  0  0  0  0  0  0  0  0  0  0
    3.7522    1.0485    0.6146 C   0  0  0  0  0  0  0  0  0  0  0  0
    4.0220    2.5290    4.3242 H   0  0  0  0  0  0  0  0  0  0  0  0
    4.1084    3.9956    3.2718 H   0  0  0  0  0  0  0  0  0  0  0  0
    5.5802    3.2547    3.9120 H   0  0  0  0  0  0  0  0  0  0  0  0
    2.0712    2.7924    3.0018 H   0  0  0  0  0  0  0  0  0  0  0  0
    0.1759    2.0217    1.7127 H   0  0  0  0  0  0  0  0  0  0  0  0
    0.5096    0.4357   -1.6288 H   0  0  0  0  0  0  0  0  0  0  0  0
   -0.9564   -0.4156    1.7829 H   0  0  0  0  0  0  0  0  0  0  0  0
   -3.2527   -1.6409    0.1749 H   0  0  0  0  0  0  0  0  0  0  0  0
   -2.2764   -2.5202    1.3826 H   0  0  0  0  0  0  0  0  0  0  0  0
   -3.2610   -1.1362    1.8542 H   0  0  0  0  0  0  0  0  0  0  0  0
    1.4470   -2.1676   -0.3445 H   0  0  0  0  0  0  0  0  0  0  0  0
    0.1795   -2.9273    0.6381 H   0  0  0  0  0  0  0  0  0  0  0  0
    1.0799   -1.5757    1.2805 H   0  0  0  0  0  0  0  0  0  0  0  0
   -0.3128   -1.4264   -2.3814 H   0  0  0  0  0  0  0  0  0  0  0  0
   -1.8944   -0.9635   -1.8202 H   0  0  0  0  0  0  0  0  0  0  0  0
   -1.7056   -3.4313   -0.5993 H   0  0  0  0  0  0  0  0  0  0  0  0
   -2.4835   -2.9185   -3.5130 H   0  0  0  0  0  0  0  0  0  0  0  0
   -3.5250   -2.6700   -2.1001 H   0  0  0  0  0  0  0  0  0  0  0  0
   -2.9903   -4.2997   -2.5236 H   0  0  0  0  0  0  0  0  0  0  0  0
   -0.6514   -5.0182   -2.1732 H   0  0  0  0  0  0  0  0  0  0  0  0
    0.5737   -3.9303   -1.5281 H   0  0  0  0  0  0  0  0  0  0  0  0
   -0.0476   -3.6836   -3.1651 H   0  0  0  0  0  0  0  0  0  0  0  0
    2.8452   -0.0112   -1.0126 H   0  0  0  0  0  0  0  0  0  0  0  0
    4.7607    0.7847    0.3050 H   0  0  0  0  0  0  0  0  0  0  0  0
  1  2  1  0
  2  3  1  0
  3  4  2  0
  4  5  1  0
  5  6  2  0
  6  7  1  0
  7  8  1  0
  8  9  1  0
  9 10  2  0
  9 11  1  0
 11 12  1  0
 11 13  1  0
 13 14  1  0
 13 15  1  0
 15 16  1  0
 16 17  1  0
 16 18  1  0
  6 19  1  0
 19 20  2  0
 20  3  1  0
 13  7  1  0
  1 21  1  0
  1 22  1  0
  1 23  1  0
  4 24  1  0
  5 25  1  0
  7 26  1  0
 11 27  1  0
 12 28  1  0
 12 29  1  0
 12 30  1  0
 14 31  1  0
 14 32  1  0
 14 33  1  0
 15 34  1  0
 15 35  1  0
 16 36  1  0
 17 37  1  0
 17 38  1  0
 17 39  1  0
 18 40  1  0
 18 41  1  0
 18 42  1  0
 19 43  1  0
 20 44  1  0
M  END
>  <energy_abs>  (91) 
47.25849810198273

>  <SMILES>  (91) 
COc1ccc(C2OC(=O)C(C)C2(C)CC(C)C)cc1

>  <cluster_no>  (91) 
91

>  <ccdc_id>  (91) 
33

>  <initial_conformation_id>  (91) 
217

>  <minimize_method>  (91) 
MMFF

$$$$
