#Put Keywords Here, check Charge and Multiplicity.

 

0  1
C           5.26910         2.33270         3.04380
O           5.00780         1.99130         1.68830
C           3.71200         1.69860         1.36480
C           3.50000         1.39430         0.01970
C           2.22240         1.07560        -0.44880
C           1.12620         1.04870         0.42460
C          -0.25190         0.69000        -0.09770
O          -1.26690         1.30520         0.69850
C          -2.42180         0.60820         0.54550
O          -3.50270         0.99390         0.96140
C          -2.17290        -0.68360        -0.20370
C          -2.99580        -1.78690         0.45500
C          -0.63400        -0.82330        -0.16750
C          -0.14800        -1.56880         1.09450
C           0.01060        -1.41800        -1.45990
C          -0.35930        -2.79190        -2.06110
C          -1.70730        -2.81220        -2.77970
C          -0.20480        -3.98070        -1.12100
C           1.34850         1.36290         1.77420
C           2.62920         1.68330         2.24130
H           5.03840         1.49700         3.71270
H           6.33860         2.54580         3.13460
H           4.72380         3.23630         3.33600
H           4.33890         1.40940        -0.67210
H           2.09590         0.85370        -1.50600
H          -0.34980         1.15890        -1.08790
H          -2.51370        -0.51790        -1.23260
H          -2.86820        -1.79930         1.54340
H          -2.75000        -2.77750         0.07350
H          -4.06340        -1.62130         0.26880
H           0.94430        -1.65060         1.11590
H          -0.46080        -1.05570         2.01090
H          -0.54050        -2.58510         1.15760
H          -0.12370        -0.68950        -2.27250
H           1.09640        -1.44900        -1.29200
H           0.38600        -2.95150        -2.85520
H          -1.80410        -3.72580        -3.37710
H          -2.55300        -2.78860        -2.09270
H          -1.79920        -1.96240        -3.46410
H           0.74870        -3.93770        -0.58520
H          -0.21750        -4.91680        -1.69100
H          -1.01550        -4.04400        -0.39350
H           0.52070         1.36480         2.48160
H           2.74130         1.91740         3.29460

