
     RDKit          3D

 44 45  0  0  0  0  0  0  0  0999 V2000
    5.2691    2.3327    3.0438 C   0  0  0  0  0  0  0  0  0  0  0  0
    5.0078    1.9913    1.6883 O   0  0  0  0  0  0  0  0  0  0  0  0
    3.7120    1.6986    1.3648 C   0  0  0  0  0  0  0  0  0  0  0  0
    3.5000    1.3943    0.0197 C   0  0  0  0  0  0  0  0  0  0  0  0
    2.2224    1.0756   -0.4488 C   0  0  0  0  0  0  0  0  0  0  0  0
    1.1262    1.0487    0.4246 C   0  0  0  0  0  0  0  0  0  0  0  0
   -0.2519    0.6900   -0.0977 C   0  0  0  0  0  0  0  0  0  0  0  0
   -1.2669    1.3052    0.6985 O   0  0  0  0  0  0  0  0  0  0  0  0
   -2.4218    0.6082    0.5455 C   0  0  0  0  0  0  0  0  0  0  0  0
   -3.5027    0.9939    0.9614 O   0  0  0  0  0  0  0  0  0  0  0  0
   -2.1729   -0.6836   -0.2037 C   0  0  0  0  0  0  0  0  0  0  0  0
   -2.9958   -1.7869    0.4550 C   0  0  0  0  0  0  0  0  0  0  0  0
   -0.6340   -0.8233   -0.1675 C   0  0  0  0  0  0  0  0  0  0  0  0
   -0.1480   -1.5688    1.0945 C   0  0  0  0  0  0  0  0  0  0  0  0
    0.0106   -1.4180   -1.4599 C   0  0  0  0  0  0  0  0  0  0  0  0
   -0.3593   -2.7919   -2.0611 C   0  0  0  0  0  0  0  0  0  0  0  0
   -1.7073   -2.8122   -2.7797 C   0  0  0  0  0  0  0  0  0  0  0  0
   -0.2048   -3.9807   -1.1210 C   0  0  0  0  0  0  0  0  0  0  0  0
    1.3485    1.3629    1.7742 C   0  0  0  0  0  0  0  0  0  0  0  0
    2.6292    1.6833    2.2413 C   0  0  0  0  0  0  0  0  0  0  0  0
    5.0384    1.4970    3.7127 H   0  0  0  0  0  0  0  0  0  0  0  0
    6.3386    2.5458    3.1346 H   0  0  0  0  0  0  0  0  0  0  0  0
    4.7238    3.2363    3.3360 H   0  0  0  0  0  0  0  0  0  0  0  0
    4.3389    1.4094   -0.6721 H   0  0  0  0  0  0  0  0  0  0  0  0
    2.0959    0.8537   -1.5060 H   0  0  0  0  0  0  0  0  0  0  0  0
   -0.3498    1.1589   -1.0879 H   0  0  0  0  0  0  0  0  0  0  0  0
   -2.5137   -0.5179   -1.2326 H   0  0  0  0  0  0  0  0  0  0  0  0
   -2.8682   -1.7993    1.5434 H   0  0  0  0  0  0  0  0  0  0  0  0
   -2.7500   -2.7775    0.0735 H   0  0  0  0  0  0  0  0  0  0  0  0
   -4.0634   -1.6213    0.2688 H   0  0  0  0  0  0  0  0  0  0  0  0
    0.9443   -1.6506    1.1159 H   0  0  0  0  0  0  0  0  0  0  0  0
   -0.4608   -1.0557    2.0109 H   0  0  0  0  0  0  0  0  0  0  0  0
   -0.5405   -2.5851    1.1576 H   0  0  0  0  0  0  0  0  0  0  0  0
   -0.1237   -0.6895   -2.2725 H   0  0  0  0  0  0  0  0  0  0  0  0
    1.0964   -1.4490   -1.2920 H   0  0  0  0  0  0  0  0  0  0  0  0
    0.3860   -2.9515   -2.8552 H   0  0  0  0  0  0  0  0  0  0  0  0
   -1.8041   -3.7258   -3.3771 H   0  0  0  0  0  0  0  0  0  0  0  0
   -2.5530   -2.7886   -2.0927 H   0  0  0  0  0  0  0  0  0  0  0  0
   -1.7992   -1.9624   -3.4641 H   0  0  0  0  0  0  0  0  0  0  0  0
    0.7487   -3.9377   -0.5852 H   0  0  0  0  0  0  0  0  0  0  0  0
   -0.2175   -4.9168   -1.6910 H   0  0  0  0  0  0  0  0  0  0  0  0
   -1.0155   -4.0440   -0.3935 H   0  0  0  0  0  0  0  0  0  0  0  0
    0.5207    1.3648    2.4816 H   0  0  0  0  0  0  0  0  0  0  0  0
    2.7413    1.9174    3.2946 H   0  0  0  0  0  0  0  0  0  0  0  0
  1  2  1  0
  2  3  1  0
  3  4  2  0
  4  5  1  0
  5  6  2  0
  6  7  1  0
  7  8  1  0
  8  9  1  0
  9 10  2  0
  9 11  1  0
 11 12  1  0
 11 13  1  0
 13 14  1  0
 13 15  1  0
 15 16  1  0
 16 17  1  0
 16 18  1  0
  6 19  1  0
 19 20  2  0
 20  3  1  0
 13  7  1  0
  1 21  1  0
  1 22  1  0
  1 23  1  0
  4 24  1  0
  5 25  1  0
  7 26  1  0
 11 27  1  0
 12 28  1  0
 12 29  1  0
 12 30  1  0
 14 31  1  0
 14 32  1  0
 14 33  1  0
 15 34  1  0
 15 35  1  0
 16 36  1  0
 17 37  1  0
 17 38  1  0
 17 39  1  0
 18 40  1  0
 18 41  1  0
 18 42  1  0
 19 43  1  0
 20 44  1  0
M  END
>  <energy_abs>  (92) 
48.58171295140107

>  <SMILES>  (92) 
COc1ccc(C2OC(=O)C(C)C2(C)CC(C)C)cc1

>  <cluster_no>  (92) 
92

>  <ccdc_id>  (92) 
33

>  <initial_conformation_id>  (92) 
216

>  <minimize_method>  (92) 
MMFF

$$$$
