
     RDKit          3D

 44 45  0  0  0  0  0  0  0  0999 V2000
    5.7201    1.5903    1.6507 C   0  0  0  0  0  0  0  0  0  0  0  0
    4.4874    1.6103    2.3588 O   0  0  0  0  0  0  0  0  0  0  0  0
    3.3476    1.4516    1.6211 C   0  0  0  0  0  0  0  0  0  0  0  0
    2.1635    1.4961    2.3567 C   0  0  0  0  0  0  0  0  0  0  0  0
    0.9226    1.3456    1.7295 C   0  0  0  0  0  0  0  0  0  0  0  0
    0.8388    1.1328    0.3470 C   0  0  0  0  0  0  0  0  0  0  0  0
   -0.4847    0.9647   -0.3807 C   0  0  0  0  0  0  0  0  0  0  0  0
   -1.5519    1.5634    0.3727 O   0  0  0  0  0  0  0  0  0  0  0  0
   -2.3514    0.6034    0.9120 C   0  0  0  0  0  0  0  0  0  0  0  0
   -3.2784    0.8416    1.6701 O   0  0  0  0  0  0  0  0  0  0  0  0
   -1.9248   -0.7724    0.4667 C   0  0  0  0  0  0  0  0  0  0  0  0
   -1.3353   -1.5234    1.6542 C   0  0  0  0  0  0  0  0  0  0  0  0
   -0.9930   -0.4640   -0.7240 C   0  0  0  0  0  0  0  0  0  0  0  0
   -1.8745   -0.3320   -1.9967 C   0  0  0  0  0  0  0  0  0  0  0  0
    0.1370   -1.5013   -0.9756 C   0  0  0  0  0  0  0  0  0  0  0  0
   -0.3098   -2.9348   -1.3583 C   0  0  0  0  0  0  0  0  0  0  0  0
   -0.2943   -3.1575   -2.8751 C   0  0  0  0  0  0  0  0  0  0  0  0
    0.6241   -3.9678   -0.7140 C   0  0  0  0  0  0  0  0  0  0  0  0
    2.0377    1.1107   -0.3861 C   0  0  0  0  0  0  0  0  0  0  0  0
    3.2797    1.2621    0.2433 C   0  0  0  0  0  0  0  0  0  0  0  0
    6.5256    1.7326    2.3775 H   0  0  0  0  0  0  0  0  0  0  0  0
    5.7742    2.4117    0.9286 H   0  0  0  0  0  0  0  0  0  0  0  0
    5.8792    0.6230    1.1626 H   0  0  0  0  0  0  0  0  0  0  0  0
    2.2043    1.6571    3.4317 H   0  0  0  0  0  0  0  0  0  0  0  0
    0.0272    1.4077    2.3444 H   0  0  0  0  0  0  0  0  0  0  0  0
   -0.4045    1.5613   -1.2996 H   0  0  0  0  0  0  0  0  0  0  0  0
   -2.8196   -1.3063    0.1244 H   0  0  0  0  0  0  0  0  0  0  0  0
   -2.0335   -1.5193    2.4991 H   0  0  0  0  0  0  0  0  0  0  0  0
   -0.4019   -1.0823    2.0101 H   0  0  0  0  0  0  0  0  0  0  0  0
   -1.1425   -2.5692    1.4026 H   0  0  0  0  0  0  0  0  0  0  0  0
   -2.6104    0.4754   -1.9030 H   0  0  0  0  0  0  0  0  0  0  0  0
   -2.4391   -1.2488   -2.1936 H   0  0  0  0  0  0  0  0  0  0  0  0
   -1.2596   -0.1088   -2.8757 H   0  0  0  0  0  0  0  0  0  0  0  0
    0.7989   -1.1214   -1.7646 H   0  0  0  0  0  0  0  0  0  0  0  0
    0.7583   -1.5608   -0.0738 H   0  0  0  0  0  0  0  0  0  0  0  0
   -1.3231   -3.1262   -0.9881 H   0  0  0  0  0  0  0  0  0  0  0  0
   -0.6146   -4.1769   -3.1171 H   0  0  0  0  0  0  0  0  0  0  0  0
   -0.9651   -2.4742   -3.3996 H   0  0  0  0  0  0  0  0  0  0  0  0
    0.7120   -3.0183   -3.2857 H   0  0  0  0  0  0  0  0  0  0  0  0
    1.6579   -3.8328   -1.0506 H   0  0  0  0  0  0  0  0  0  0  0  0
    0.6106   -3.8841    0.3774 H   0  0  0  0  0  0  0  0  0  0  0  0
    0.3140   -4.9866   -0.9705 H   0  0  0  0  0  0  0  0  0  0  0  0
    2.0174    0.9771   -1.4663 H   0  0  0  0  0  0  0  0  0  0  0  0
    4.1713    1.2310   -0.3738 H   0  0  0  0  0  0  0  0  0  0  0  0
  1  2  1  0
  2  3  1  0
  3  4  2  0
  4  5  1  0
  5  6  2  0
  6  7  1  0
  7  8  1  0
  8  9  1  0
  9 10  2  0
  9 11  1  0
 11 12  1  0
 11 13  1  0
 13 14  1  0
 13 15  1  0
 15 16  1  0
 16 17  1  0
 16 18  1  0
  6 19  1  0
 19 20  2  0
 20  3  1  0
 13  7  1  0
  1 21  1  0
  1 22  1  0
  1 23  1  0
  4 24  1  0
  5 25  1  0
  7 26  1  0
 11 27  1  0
 12 28  1  0
 12 29  1  0
 12 30  1  0
 14 31  1  0
 14 32  1  0
 14 33  1  0
 15 34  1  0
 15 35  1  0
 16 36  1  0
 17 37  1  0
 17 38  1  0
 17 39  1  0
 18 40  1  0
 18 41  1  0
 18 42  1  0
 19 43  1  0
 20 44  1  0
M  END
>  <energy_abs>  (94) 
46.72423158262069

>  <SMILES>  (94) 
COc1ccc(C2OC(=O)C(C)C2(C)CC(C)C)cc1

>  <cluster_no>  (94) 
94

>  <ccdc_id>  (94) 
33

>  <initial_conformation_id>  (94) 
212

>  <minimize_method>  (94) 
MMFF

$$$$
