
     RDKit          3D

 44 45  0  0  0  0  0  0  0  0999 V2000
    5.9340    1.9673    1.4180 C   0  0  0  0  0  0  0  0  0  0  0  0
    4.7499    2.0132    2.2035 O   0  0  0  0  0  0  0  0  0  0  0  0
    3.5782    1.6928    1.5760 C   0  0  0  0  0  0  0  0  0  0  0  0
    3.4376    1.3090    0.2439 C   0  0  0  0  0  0  0  0  0  0  0  0
    2.1716    1.0055   -0.2726 C   0  0  0  0  0  0  0  0  0  0  0  0
    1.0242    1.0760    0.5325 C   0  0  0  0  0  0  0  0  0  0  0  0
   -0.3324    0.7296   -0.0490 C   0  0  0  0  0  0  0  0  0  0  0  0
   -1.3822    1.3924    0.6638 O   0  0  0  0  0  0  0  0  0  0  0  0
   -2.5390    0.6992    0.4849 C   0  0  0  0  0  0  0  0  0  0  0  0
   -3.6314    1.0986    0.8542 O   0  0  0  0  0  0  0  0  0  0  0  0
   -2.2694   -0.6006   -0.2408 C   0  0  0  0  0  0  0  0  0  0  0  0
   -3.1680   -1.6990    0.3143 C   0  0  0  0  0  0  0  0  0  0  0  0
   -0.7428   -0.7733   -0.0724 C   0  0  0  0  0  0  0  0  0  0  0  0
   -0.3737   -1.4614    1.2592 C   0  0  0  0  0  0  0  0  0  0  0  0
   -0.0535   -1.4660   -1.2867 C   0  0  0  0  0  0  0  0  0  0  0  0
   -0.5940   -2.8119   -1.8182 C   0  0  0  0  0  0  0  0  0  0  0  0
   -0.3102   -3.9994   -0.8997 C   0  0  0  0  0  0  0  0  0  0  0  0
    0.0412   -3.0957   -3.1889 C   0  0  0  0  0  0  0  0  0  0  0  0
    1.1781    1.4706    1.8686 C   0  0  0  0  0  0  0  0  0  0  0  0
    2.4424    1.7726    2.3821 C   0  0  0  0  0  0  0  0  0  0  0  0
    6.7724    2.2550    2.0597 H   0  0  0  0  0  0  0  0  0  0  0  0
    6.1267    0.9528    1.0536 H   0  0  0  0  0  0  0  0  0  0  0  0
    5.8873    2.6830    0.5906 H   0  0  0  0  0  0  0  0  0  0  0  0
    4.2905    1.2372   -0.4226 H   0  0  0  0  0  0  0  0  0  0  0  0
    2.0930    0.7164   -1.3186 H   0  0  0  0  0  0  0  0  0  0  0  0
   -0.3646    1.1579   -1.0616 H   0  0  0  0  0  0  0  0  0  0  0  0
   -2.5131   -0.4271   -1.2971 H   0  0  0  0  0  0  0  0  0  0  0  0
   -3.1101   -1.7646    1.4062 H   0  0  0  0  0  0  0  0  0  0  0  0
   -2.9302   -2.6782   -0.1048 H   0  0  0  0  0  0  0  0  0  0  0  0
   -4.2156   -1.4867    0.0708 H   0  0  0  0  0  0  0  0  0  0  0  0
   -0.8168   -2.4527    1.3581 H   0  0  0  0  0  0  0  0  0  0  0  0
    0.7103   -1.5868    1.3563 H   0  0  0  0  0  0  0  0  0  0  0  0
   -0.7203   -0.8819    2.1223 H   0  0  0  0  0  0  0  0  0  0  0  0
    1.0159   -1.5861   -1.0676 H   0  0  0  0  0  0  0  0  0  0  0  0
   -0.0978   -0.7615   -2.1295 H   0  0  0  0  0  0  0  0  0  0  0  0
   -1.6738   -2.7371   -1.9827 H   0  0  0  0  0  0  0  0  0  0  0  0
   -0.5095   -4.9471   -1.4127 H   0  0  0  0  0  0  0  0  0  0  0  0
    0.7341   -4.0104   -0.5709 H   0  0  0  0  0  0  0  0  0  0  0  0
   -0.9519   -3.9901   -0.0177 H   0  0  0  0  0  0  0  0  0  0  0  0
   -0.1827   -2.2914   -3.8978 H   0  0  0  0  0  0  0  0  0  0  0  0
   -0.3486   -4.0264   -3.6151 H   0  0  0  0  0  0  0  0  0  0  0  0
    1.1301   -3.1874   -3.1106 H   0  0  0  0  0  0  0  0  0  0  0  0
    0.3148    1.5495    2.5268 H   0  0  0  0  0  0  0  0  0  0  0  0
    2.5405    2.0763    3.4217 H   0  0  0  0  0  0  0  0  0  0  0  0
  1  2  1  0
  2  3  1  0
  3  4  2  0
  4  5  1  0
  5  6  2  0
  6  7  1  0
  7  8  1  0
  8  9  1  0
  9 10  2  0
  9 11  1  0
 11 12  1  0
 11 13  1  0
 13 14  1  0
 13 15  1  0
 15 16  1  0
 16 17  1  0
 16 18  1  0
  6 19  1  0
 19 20  2  0
 20  3  1  0
 13  7  1  0
  1 21  1  0
  1 22  1  0
  1 23  1  0
  4 24  1  0
  5 25  1  0
  7 26  1  0
 11 27  1  0
 12 28  1  0
 12 29  1  0
 12 30  1  0
 14 31  1  0
 14 32  1  0
 14 33  1  0
 15 34  1  0
 15 35  1  0
 16 36  1  0
 17 37  1  0
 17 38  1  0
 17 39  1  0
 18 40  1  0
 18 41  1  0
 18 42  1  0
 19 43  1  0
 20 44  1  0
M  END
>  <energy_abs>  (95) 
44.92535452557323

>  <SMILES>  (95) 
COc1ccc(C2OC(=O)C(C)C2(C)CC(C)C)cc1

>  <cluster_no>  (95) 
95

>  <ccdc_id>  (95) 
33

>  <initial_conformation_id>  (95) 
211

>  <minimize_method>  (95) 
MMFF

$$$$
