%NProcShared=1
%Mem=10GB

#p B3LYP/6-31G* opt freq

test

0  1
C           5.57490         1.18900         2.55010
O           4.95840         1.67290         1.36340
C           3.62750         1.40390         1.20730
C           3.06750         1.88230         0.02420
C           1.71390         1.67520        -0.26470
C           0.88700         0.96130         0.61350
C          -0.58930         0.76270         0.31170
O          -1.25460         0.05460         1.36930
C          -2.35460        -0.58080         0.88370
O          -3.14700        -1.19830         1.57650
C          -2.46590        -0.38220        -0.60430
C          -3.57220         0.64180        -0.85520
C          -1.02480         0.03310        -0.98240
C          -1.01160         0.99290        -2.19530
C          -0.16210        -1.21170        -1.40260
C          -0.23130        -2.55690        -0.63680
C           0.59720        -2.58880         0.64400
C           0.27620        -3.67940        -1.55850
C           1.45800         0.52060         1.81900
C           2.81340         0.72720         2.10970
H           6.63170         1.47090         2.51640
H           5.13530         1.65190         3.43980
H           5.52340         0.09660         2.60540
H           3.68920         2.43190        -0.67870
H           1.32430         2.10320        -1.18240
H          -1.02250         1.77320         0.33470
H          -2.74240        -1.32650        -1.08370
H          -4.52210         0.29050        -0.43600
H          -3.35350         1.60720        -0.38650
H          -3.72930         0.80300        -1.92600
H          -1.42270         1.97750        -1.94920
H           0.00000         1.14500        -2.58270
H          -1.60140         0.58160        -3.02310
H           0.88990        -0.91050        -1.49050
H          -0.47000        -1.44220        -2.43400
H          -1.26710        -2.80580        -0.38790
H           0.65770        -3.60750         1.04390
H           1.62040        -2.24190         0.46790
H           0.14750        -1.98140         1.42780
H           0.22210        -4.65190        -1.05730
H           1.31610        -3.50800        -1.85710
H          -0.33310        -3.74540        -2.46630
H           0.85130         0.00370         2.56130
H           3.19260         0.35030         3.05370

