
     RDKit          3D

 44 45  0  0  0  0  0  0  0  0999 V2000
    5.5749    1.1890    2.5501 C   0  0  0  0  0  0  0  0  0  0  0  0
    4.9584    1.6729    1.3634 O   0  0  0  0  0  0  0  0  0  0  0  0
    3.6275    1.4039    1.2073 C   0  0  0  0  0  0  0  0  0  0  0  0
    3.0675    1.8823    0.0242 C   0  0  0  0  0  0  0  0  0  0  0  0
    1.7139    1.6752   -0.2647 C   0  0  0  0  0  0  0  0  0  0  0  0
    0.8870    0.9613    0.6135 C   0  0  0  0  0  0  0  0  0  0  0  0
   -0.5893    0.7627    0.3117 C   0  0  0  0  0  0  0  0  0  0  0  0
   -1.2546    0.0546    1.3693 O   0  0  0  0  0  0  0  0  0  0  0  0
   -2.3546   -0.5808    0.8837 C   0  0  0  0  0  0  0  0  0  0  0  0
   -3.1470   -1.1983    1.5765 O   0  0  0  0  0  0  0  0  0  0  0  0
   -2.4659   -0.3822   -0.6043 C   0  0  0  0  0  0  0  0  0  0  0  0
   -3.5722    0.6418   -0.8552 C   0  0  0  0  0  0  0  0  0  0  0  0
   -1.0248    0.0331   -0.9824 C   0  0  0  0  0  0  0  0  0  0  0  0
   -1.0116    0.9929   -2.1953 C   0  0  0  0  0  0  0  0  0  0  0  0
   -0.1621   -1.2117   -1.4026 C   0  0  0  0  0  0  0  0  0  0  0  0
   -0.2313   -2.5569   -0.6368 C   0  0  0  0  0  0  0  0  0  0  0  0
    0.5972   -2.5888    0.6440 C   0  0  0  0  0  0  0  0  0  0  0  0
    0.2762   -3.6794   -1.5585 C   0  0  0  0  0  0  0  0  0  0  0  0
    1.4580    0.5206    1.8190 C   0  0  0  0  0  0  0  0  0  0  0  0
    2.8134    0.7272    2.1097 C   0  0  0  0  0  0  0  0  0  0  0  0
    6.6317    1.4709    2.5164 H   0  0  0  0  0  0  0  0  0  0  0  0
    5.1353    1.6519    3.4398 H   0  0  0  0  0  0  0  0  0  0  0  0
    5.5234    0.0966    2.6054 H   0  0  0  0  0  0  0  0  0  0  0  0
    3.6892    2.4319   -0.6787 H   0  0  0  0  0  0  0  0  0  0  0  0
    1.3243    2.1032   -1.1824 H   0  0  0  0  0  0  0  0  0  0  0  0
   -1.0225    1.7732    0.3347 H   0  0  0  0  0  0  0  0  0  0  0  0
   -2.7424   -1.3265   -1.0837 H   0  0  0  0  0  0  0  0  0  0  0  0
   -4.5221    0.2905   -0.4360 H   0  0  0  0  0  0  0  0  0  0  0  0
   -3.3535    1.6072   -0.3865 H   0  0  0  0  0  0  0  0  0  0  0  0
   -3.7293    0.8030   -1.9260 H   0  0  0  0  0  0  0  0  0  0  0  0
   -1.4227    1.9775   -1.9492 H   0  0  0  0  0  0  0  0  0  0  0  0
    0.0000    1.1450   -2.5827 H   0  0  0  0  0  0  0  0  0  0  0  0
   -1.6014    0.5816   -3.0231 H   0  0  0  0  0  0  0  0  0  0  0  0
    0.8899   -0.9105   -1.4905 H   0  0  0  0  0  0  0  0  0  0  0  0
   -0.4700   -1.4422   -2.4340 H   0  0  0  0  0  0  0  0  0  0  0  0
   -1.2671   -2.8058   -0.3879 H   0  0  0  0  0  0  0  0  0  0  0  0
    0.6577   -3.6075    1.0439 H   0  0  0  0  0  0  0  0  0  0  0  0
    1.6204   -2.2419    0.4679 H   0  0  0  0  0  0  0  0  0  0  0  0
    0.1475   -1.9814    1.4278 H   0  0  0  0  0  0  0  0  0  0  0  0
    0.2221   -4.6519   -1.0573 H   0  0  0  0  0  0  0  0  0  0  0  0
    1.3161   -3.5080   -1.8571 H   0  0  0  0  0  0  0  0  0  0  0  0
   -0.3331   -3.7454   -2.4663 H   0  0  0  0  0  0  0  0  0  0  0  0
    0.8513    0.0037    2.5613 H   0  0  0  0  0  0  0  0  0  0  0  0
    3.1926    0.3503    3.0537 H   0  0  0  0  0  0  0  0  0  0  0  0
  1  2  1  0
  2  3  1  0
  3  4  2  0
  4  5  1  0
  5  6  2  0
  6  7  1  0
  7  8  1  0
  8  9  1  0
  9 10  2  0
  9 11  1  0
 11 12  1  0
 11 13  1  0
 13 14  1  0
 13 15  1  0
 15 16  1  0
 16 17  1  0
 16 18  1  0
  6 19  1  0
 19 20  2  0
 20  3  1  0
 13  7  1  0
  1 21  1  0
  1 22  1  0
  1 23  1  0
  4 24  1  0
  5 25  1  0
  7 26  1  0
 11 27  1  0
 12 28  1  0
 12 29  1  0
 12 30  1  0
 14 31  1  0
 14 32  1  0
 14 33  1  0
 15 34  1  0
 15 35  1  0
 16 36  1  0
 17 37  1  0
 17 38  1  0
 17 39  1  0
 18 40  1  0
 18 41  1  0
 18 42  1  0
 19 43  1  0
 20 44  1  0
M  END
>  <energy_abs>  (97) 
49.039749459619934

>  <SMILES>  (97) 
COc1ccc(C2OC(=O)C(C)C2(C)CC(C)C)cc1

>  <cluster_no>  (97) 
97

>  <ccdc_id>  (97) 
33

>  <initial_conformation_id>  (97) 
209

>  <minimize_method>  (97) 
MMFF

$$$$
