#Put Keywords Here, check Charge and Multiplicity.

 

0  1
C           5.19270         3.30980         1.75650
O           4.98440         1.92900         1.48800
C           3.68850         1.51740         1.34400
C           2.55630         2.32560         1.41730
C           1.28170         1.77040         1.24870
C           1.11380         0.39920         0.99990
C          -0.25780        -0.21890         0.80650
O          -1.26700         0.58060         1.45160
C          -2.46030         0.40690         0.81410
O          -3.50770         0.91560         1.17680
C          -2.28170        -0.52330        -0.36040
C          -3.22070        -0.19970        -1.51130
C          -0.77190        -0.38900        -0.64350
C          -0.47440         0.89200        -1.47700
C          -0.16210        -1.58580        -1.43020
C          -0.65900        -3.02930        -1.18070
C          -0.39930        -3.56060         0.22620
C           0.01210        -3.96840        -2.19460
C           2.26070        -0.40410         0.93660
C           3.53210         0.15200         1.10410
H           4.83380         3.93120         0.92930
H           6.27060         3.47290         1.85140
H           4.72710         3.60300         2.70320
H           2.62440         3.39170         1.60650
H           0.41590         2.42750         1.31610
H          -0.25600        -1.16430         1.35530
H          -2.52600        -1.52040         0.02170
H          -2.97710        -0.79220        -2.39840
H          -4.25480        -0.42890        -1.23020
H          -3.19890         0.86210        -1.77780
H          -0.92340         0.83490        -2.47490
H          -0.86010         1.79790        -0.99700
H           0.60240         1.02460        -1.63070
H           0.92960        -1.56330        -1.32530
H          -0.34430        -1.39400        -2.49790
H          -1.73670        -3.07650        -1.37610
H           0.64290        -3.41130         0.52450
H          -1.04940        -3.08150         0.96160
H          -0.61080        -4.63450         0.28230
H          -0.36190        -4.99220        -2.08560
H           1.09890        -3.98780        -2.05860
H          -0.19690        -3.64940        -3.22130
H           2.18150        -1.47410         0.76180
H           4.41040        -0.48700         1.05080

