#Put Keywords Here, check Charge and Multiplicity.

 ABABAH

0  1
O           2.98360         2.50210        13.57860
O           3.70340         2.09020        15.70480
O           1.49550         1.85930         7.39580
C           2.80590         2.35140        14.92170
C           1.35720         2.58870        15.26940
H           1.27470         3.65490        15.52350
C           0.64780         2.31320        13.91390
C           1.73970         2.91640        12.99030
H           1.73780         4.01420        13.07000
C           0.91260         1.77830        16.47680
H          -0.17200         1.82760        16.61180
H           1.37880         2.17440        17.38630
H           1.21720         0.72890        16.40730
C          -0.65520         3.11850        13.84360
H          -1.37150         2.77230        14.59580
H          -1.12780         3.05010        12.85990
H          -0.47720         4.18310        14.03520
C           0.41010         0.77680        13.70240
H          -0.02680         0.34930        14.61200
H           1.39140         0.29440        13.60220
C          -0.50060         0.32530        12.53220
H          -0.46510         1.04390        11.71110
C          -1.96470         0.17320        12.96350
H          -2.58030        -0.16130        12.12110
H          -2.38900         1.11410        13.31900
H          -2.06850        -0.56620        13.76530
C          -0.01980        -1.02620        11.98790
H          -0.64470        -1.35290        11.14980
H          -0.05710        -1.80140        12.76120
H           1.01060        -0.96160        11.62510
C           1.71300         2.59640        11.51360
C           0.89520         3.34200        10.65210
H           0.28010         4.15330        11.03460
C           0.85470         3.05780         9.28440
H           0.21200         3.64360         8.63140
C           1.63230         2.03250         8.74520
C           2.45850         1.29340         9.58910
H           3.08630         0.49050         9.21750
C           2.49990         1.57560        10.96010
H           3.15740         0.98280        11.59400
C           2.27700         0.83230         6.79860
H           2.05660         0.82520         5.72670
H           2.00980        -0.15090         7.19980
H           3.34740         1.03100         6.91690

