ABABAH
     RDKit          3D

 44 45  0  0  0  0  0  0  0  0999 V2000
    2.9836    2.5021   13.5786 O   0  0  0  0  0  0  0  0  0  0  0  0
    3.7034    2.0902   15.7048 O   0  0  0  0  0  0  0  0  0  0  0  0
    1.4955    1.8593    7.3958 O   0  0  0  0  0  0  0  0  0  0  0  0
    2.8059    2.3514   14.9217 C   0  0  0  0  0  0  0  0  0  0  0  0
    1.3572    2.5887   15.2694 C   0  0  0  0  0  0  0  0  0  0  0  0
    1.2747    3.6549   15.5235 H   0  0  0  0  0  0  0  0  0  0  0  0
    0.6478    2.3132   13.9139 C   0  0  0  0  0  0  0  0  0  0  0  0
    1.7397    2.9164   12.9903 C   0  0  0  0  0  0  0  0  0  0  0  0
    1.7378    4.0142   13.0700 H   0  0  0  0  0  0  0  0  0  0  0  0
    0.9126    1.7783   16.4768 C   0  0  0  0  0  0  0  0  0  0  0  0
   -0.1720    1.8276   16.6118 H   0  0  0  0  0  0  0  0  0  0  0  0
    1.3788    2.1744   17.3863 H   0  0  0  0  0  0  0  0  0  0  0  0
    1.2172    0.7289   16.4073 H   0  0  0  0  0  0  0  0  0  0  0  0
   -0.6552    3.1185   13.8436 C   0  0  0  0  0  0  0  0  0  0  0  0
   -1.3715    2.7723   14.5958 H   0  0  0  0  0  0  0  0  0  0  0  0
   -1.1278    3.0501   12.8599 H   0  0  0  0  0  0  0  0  0  0  0  0
   -0.4772    4.1831   14.0352 H   0  0  0  0  0  0  0  0  0  0  0  0
    0.4101    0.7768   13.7024 C   0  0  0  0  0  0  0  0  0  0  0  0
   -0.0268    0.3493   14.6120 H   0  0  0  0  0  0  0  0  0  0  0  0
    1.3914    0.2944   13.6022 H   0  0  0  0  0  0  0  0  0  0  0  0
   -0.5006    0.3253   12.5322 C   0  0  0  0  0  0  0  0  0  0  0  0
   -0.4651    1.0439   11.7111 H   0  0  0  0  0  0  0  0  0  0  0  0
   -1.9647    0.1732   12.9635 C   0  0  0  0  0  0  0  0  0  0  0  0
   -2.5803   -0.1613   12.1211 H   0  0  0  0  0  0  0  0  0  0  0  0
   -2.3890    1.1141   13.3190 H   0  0  0  0  0  0  0  0  0  0  0  0
   -2.0685   -0.5662   13.7653 H   0  0  0  0  0  0  0  0  0  0  0  0
   -0.0198   -1.0262   11.9879 C   0  0  0  0  0  0  0  0  0  0  0  0
   -0.6447   -1.3529   11.1498 H   0  0  0  0  0  0  0  0  0  0  0  0
   -0.0571   -1.8014   12.7612 H   0  0  0  0  0  0  0  0  0  0  0  0
    1.0106   -0.9616   11.6251 H   0  0  0  0  0  0  0  0  0  0  0  0
    1.7130    2.5964   11.5136 C   0  0  0  0  0  0  0  0  0  0  0  0
    0.8952    3.3420   10.6521 C   0  0  0  0  0  0  0  0  0  0  0  0
    0.2801    4.1533   11.0346 H   0  0  0  0  0  0  0  0  0  0  0  0
    0.8547    3.0578    9.2844 C   0  0  0  0  0  0  0  0  0  0  0  0
    0.2120    3.6436    8.6314 H   0  0  0  0  0  0  0  0  0  0  0  0
    1.6323    2.0325    8.7452 C   0  0  0  0  0  0  0  0  0  0  0  0
    2.4585    1.2934    9.5891 C   0  0  0  0  0  0  0  0  0  0  0  0
    3.0863    0.4905    9.2175 H   0  0  0  0  0  0  0  0  0  0  0  0
    2.4999    1.5756   10.9601 C   0  0  0  0  0  0  0  0  0  0  0  0
    3.1574    0.9828   11.5940 H   0  0  0  0  0  0  0  0  0  0  0  0
    2.2770    0.8323    6.7986 C   0  0  0  0  0  0  0  0  0  0  0  0
    2.0566    0.8252    5.7267 H   0  0  0  0  0  0  0  0  0  0  0  0
    2.0098   -0.1509    7.1998 H   0  0  0  0  0  0  0  0  0  0  0  0
    3.3474    1.0310    6.9169 H   0  0  0  0  0  0  0  0  0  0  0  0
  1  4  1  0
  2  4  2  0
  3 36  1  0
  4  5  1  0
  5  6  1  0
  7  5  1  0
  8  1  1  0
  9  8  1  0
 10  5  1  0
 11 10  1  0
 12 10  1  0
 13 10  1  0
 14  7  1  0
 15 14  1  0
 16 14  1  0
 17 14  1  0
 18  7  1  0
 19 18  1  0
 20 18  1  0
 21 18  1  0
 22 21  1  0
 23 21  1  0
 24 23  1  0
 25 23  1  0
 26 23  1  0
 27 21  1  0
 28 27  1  0
 29 27  1  0
 30 27  1  0
 31  8  1  0
 32 31  2  0
 33 32  1  0
 34 32  1  0
 35 34  1  0
 36 34  2  0
 37 36  1  0
 38 37  1  0
 39 31  1  0
 40 39  1  0
 41  3  1  0
 42 41  1  0
 43 41  1  0
 44 41  1  0
  7  8  1  0
 37 39  2  0
M  END
>  <energy_abs>  (1) 
45.67154962567227

>  <SMILES>  (1) 
COc1ccc(C2OC(=O)C(C)C2(C)CC(C)C)cc1

>  <ccdc_id>  (1) 
33

>  <initial_conformation_id>  (1) 
0

>  <minimize_method>  (1) 
MMFF

$$$$
